
     RDKit          3D

 19 21  0  0  0  0  0  0  0  0999 V2000
   -0.2713    1.7219    5.5132 O   0  0  0  0  0  0  0  0  0  0  0  0
    0.5411    0.6158    5.3126 C   0  0  0  0  0  0  0  0  0  0  0  0
    0.2685   -0.4800    6.3129 C   0  0  1  0  0  0  0  0  0  0  0  0
   -0.0205    0.0513    7.5698 O   0  0  0  0  0  0  0  0  0  0  0  0
   -0.6652   -0.9377    8.2886 C   0  0  2  0  0  0  0  0  0  0  0  0
   -1.2747   -1.8924    7.3384 C   0  0  1  0  0  0  0  0  0  0  0  0
   -1.0238   -1.1993    5.9925 C   0  0  2  0  0  0  0  0  0  0  0  0
   -0.8660   -2.1337    4.9794 O   0  0  0  0  0  0  0  0  0  0  0  0
   -0.5330   -3.0827    7.2880 O   0  0  0  0  0  0  0  0  0  0  0  0
   -1.5668   -0.3735    9.2514 N   0  0  0  0  0  0  0  0  0  0  0  0
   -1.8718    0.9444    9.2664 C   0  0  0  0  0  0  0  0  0  0  0  0
   -2.7316    1.1539   10.2752 N   0  0  0  0  0  0  0  0  0  0  0  0
   -2.9658   -0.0092   10.8865 C   0  0  0  0  0  0  0  0  0  0  0  0
   -2.2345   -0.9870   10.2488 C   0  0  0  0  0  0  0  0  0  0  0  0
   -2.2736   -2.2683   10.6505 N   0  0  0  0  0  0  0  0  0  0  0  0
   -3.0531   -2.6046   11.7102 C   0  0  0  0  0  0  0  0  0  0  0  0
   -3.7704   -1.6639   12.3407 N   0  0  0  0  0  0  0  0  0  0  0  0
   -3.7492   -0.3863   11.9621 C   0  0  0  0  0  0  0  0  0  0  0  0
   -4.5047    0.6222   12.6213 N   0  0  0  0  0  0  0  0  0  0  0  0
  1  2  1  0
  3  2  1  6
  3  4  1  0
  4  5  1  0
  5  6  1  0
  6  7  1  0
  7  8  1  6
  6  9  1  6
  5 10  1  6
 10 11  1  0
 11 12  2  0
 12 13  1  0
 13 14  2  0
 14 15  1  0
 15 16  2  0
 16 17  1  0
 17 18  2  0
 18 19  1  0
  7  3  1  0
 14 10  1  0
 18 13  1  0
M  END
$$$$
