
     RDKit          3D

 19 21  0  0  0  0  0  0  0  0999 V2000
   -0.4657    1.8410    5.6993 O   0  0  0  0  0  0  0  0  0  0  0  0
    0.2772    0.6980    5.4441 C   0  0  0  0  0  0  0  0  0  0  0  0
    0.0010   -0.3960    6.4454 C   0  0  1  0  0  0  0  0  0  0  0  0
   -0.2731    0.1369    7.7049 O   0  0  0  0  0  0  0  0  0  0  0  0
   -0.9223   -0.8463    8.4276 C   0  0  2  0  0  0  0  0  0  0  0  0
   -1.5486   -1.7938    7.4812 C   0  0  1  0  0  0  0  0  0  0  0  0
   -1.3008   -1.1019    6.1340 C   0  0  2  0  0  0  0  0  0  0  0  0
   -1.1601   -2.0369    5.1189 O   0  0  0  0  0  0  0  0  0  0  0  0
   -0.8193   -2.9915    7.4241 O   0  0  0  0  0  0  0  0  0  0  0  0
   -1.8109   -0.2740    9.3977 N   0  0  0  0  0  0  0  0  0  0  0  0
   -2.1004    1.0473    9.4179 C   0  0  0  0  0  0  0  0  0  0  0  0
   -2.9510    1.2643   10.4329 N   0  0  0  0  0  0  0  0  0  0  0  0
   -3.1947    0.1025   11.0429 C   0  0  0  0  0  0  0  0  0  0  0  0
   -2.4790   -0.8821   10.3980 C   0  0  0  0  0  0  0  0  0  0  0  0
   -2.5304   -2.1639   10.7971 N   0  0  0  0  0  0  0  0  0  0  0  0
   -3.3067   -2.4937   11.8611 C   0  0  0  0  0  0  0  0  0  0  0  0
   -4.0089   -1.5463   12.4985 N   0  0  0  0  0  0  0  0  0  0  0  0
   -3.9753   -0.2681   12.1229 C   0  0  0  0  0  0  0  0  0  0  0  0
   -4.7146    0.7475   12.7894 N   0  0  0  0  0  0  0  0  0  0  0  0
  1  2  1  0
  3  2  1  6
  3  4  1  0
  4  5  1  0
  5  6  1  0
  6  7  1  0
  7  8  1  6
  6  9  1  6
  5 10  1  1
 10 11  1  0
 11 12  2  0
 12 13  1  0
 13 14  2  0
 14 15  1  0
 15 16  2  0
 16 17  1  0
 17 18  2  0
 18 19  1  0
  7  3  1  0
 14 10  1  0
 18 13  1  0
M  END
$$$$
