
     RDKit          3D

 19 21  0  0  0  0  0  0  0  0999 V2000
   -0.4502    1.7482    5.4455 O   0  0  0  0  0  0  0  0  0  0  0  0
    0.3171    0.6185    5.2030 C   0  0  0  0  0  0  0  0  0  0  0  0
   -0.0014   -0.5026    6.1608 C   0  0  1  0  0  0  0  0  0  0  0  0
   -0.2540   -0.0096    7.4409 O   0  0  0  0  0  0  0  0  0  0  0  0
   -0.9410   -0.9944    8.1255 C   0  0  2  0  0  0  0  0  0  0  0  0
   -1.6043   -1.8785    7.1435 C   0  0  1  0  0  0  0  0  0  0  0  0
   -1.3301   -1.1441    5.8243 C   0  0  2  0  0  0  0  0  0  0  0  0
   -1.2265   -2.0429    4.7728 O   0  0  0  0  0  0  0  0  0  0  0  0
   -0.9226   -3.1006    7.0378 O   0  0  0  0  0  0  0  0  0  0  0  0
   -1.8061   -0.4266    9.1192 N   0  0  0  0  0  0  0  0  0  0  0  0
   -2.1025    0.8932    9.1465 C   0  0  0  0  0  0  0  0  0  0  0  0
   -2.9263    1.1060   10.1842 N   0  0  0  0  0  0  0  0  0  0  0  0
   -3.1467   -0.0569   10.8012 C   0  0  0  0  0  0  0  0  0  0  0  0
   -2.4433   -1.0378   10.1376 C   0  0  0  0  0  0  0  0  0  0  0  0
   -2.4765   -2.3196   10.5384 N   0  0  0  0  0  0  0  0  0  0  0  0
   -3.2217   -2.6531   11.6234 C   0  0  0  0  0  0  0  0  0  0  0  0
   -3.9116   -1.7093   12.2793 N   0  0  0  0  0  0  0  0  0  0  0  0
   -3.8955   -0.4311   11.9022 C   0  0  0  0  0  0  0  0  0  0  0  0
   -4.6222    0.5806   12.5881 N   0  0  0  0  0  0  0  0  0  0  0  0
  1  2  1  0
  3  2  1  6
  3  4  1  0
  4  5  1  0
  5  6  1  0
  6  7  1  0
  7  8  1  6
  6  9  1  6
  5 10  1  1
 10 11  1  0
 11 12  2  0
 12 13  1  0
 13 14  2  0
 14 15  1  0
 15 16  2  0
 16 17  1  0
 17 18  2  0
 18 19  1  0
  7  3  1  0
 14 10  1  0
 18 13  1  0
M  END
$$$$
