
     RDKit          3D

 19 21  0  0  0  0  0  0  0  0999 V2000
   -0.0809    1.8226    5.9889 O   0  0  0  0  0  0  0  0  0  0  0  0
    0.6570    0.6880    5.6861 C   0  0  0  0  0  0  0  0  0  0  0  0
    0.3430   -0.4597    6.6135 C   0  0  1  0  0  0  0  0  0  0  0  0
    0.0382    0.0015    7.8941 O   0  0  0  0  0  0  0  0  0  0  0  0
   -0.6398   -1.0154    8.5396 C   0  0  2  0  0  0  0  0  0  0  0  0
   -1.2474   -1.8994    7.5223 C   0  0  1  0  0  0  0  0  0  0  0  0
   -0.9556   -1.1326    6.2254 C   0  0  2  0  0  0  0  0  0  0  0  0
   -0.7946   -2.0081    5.1614 O   0  0  0  0  0  0  0  0  0  0  0  0
   -0.5274   -3.0992    7.4151 O   0  0  0  0  0  0  0  0  0  0  0  0
   -1.5503   -0.4915    9.5167 N   0  0  0  0  0  0  0  0  0  0  0  0
   -1.8965    0.8159    9.5503 C   0  0  0  0  0  0  0  0  0  0  0  0
   -2.7537    0.9860   10.5687 N   0  0  0  0  0  0  0  0  0  0  0  0
   -2.9459   -0.1912   11.1676 C   0  0  0  0  0  0  0  0  0  0  0  0
   -2.1897   -1.1376   10.5120 C   0  0  0  0  0  0  0  0  0  0  0  0
   -2.1849   -2.4243   10.8984 N   0  0  0  0  0  0  0  0  0  0  0  0
   -2.9443   -2.7976   11.9603 C   0  0  0  0  0  0  0  0  0  0  0  0
   -3.6853   -1.8877   12.6081 N   0  0  0  0  0  0  0  0  0  0  0  0
   -3.7076   -0.6056   12.2451 C   0  0  0  0  0  0  0  0  0  0  0  0
   -4.4888    0.3705   12.9227 N   0  0  0  0  0  0  0  0  0  0  0  0
  1  2  1  0
  3  2  1  6
  3  4  1  0
  4  5  1  0
  5  6  1  0
  6  7  1  0
  7  8  1  6
  6  9  1  6
  5 10  1  1
 10 11  1  0
 11 12  2  0
 12 13  1  0
 13 14  2  0
 14 15  1  0
 15 16  2  0
 16 17  1  0
 17 18  2  0
 18 19  1  0
  7  3  1  0
 14 10  1  0
 18 13  1  0
M  END
$$$$
