
     RDKit          3D

 19 21  0  0  0  0  0  0  0  0999 V2000
   -0.4559    1.8286    5.5742 O   0  0  0  0  0  0  0  0  0  0  0  0
    0.3247    0.7028    5.3571 C   0  0  0  0  0  0  0  0  0  0  0  0
    0.0348   -0.3919    6.3537 C   0  0  1  0  0  0  0  0  0  0  0  0
   -0.2271    0.1386    7.6168 O   0  0  0  0  0  0  0  0  0  0  0  0
   -0.8892   -0.8382    8.3366 C   0  0  2  0  0  0  0  0  0  0  0  0
   -1.5330   -1.7709    7.3873 C   0  0  1  0  0  0  0  0  0  0  0  0
   -1.2788   -1.0760    6.0429 C   0  0  2  0  0  0  0  0  0  0  0  0
   -1.1558   -2.0077    5.0225 O   0  0  0  0  0  0  0  0  0  0  0  0
   -0.8226   -2.9795    7.3216 O   0  0  0  0  0  0  0  0  0  0  0  0
   -1.7657   -0.2573    9.3125 N   0  0  0  0  0  0  0  0  0  0  0  0
   -2.0456    1.0662    9.3318 C   0  0  0  0  0  0  0  0  0  0  0  0
   -2.8864    1.2917   10.3531 N   0  0  0  0  0  0  0  0  0  0  0  0
   -3.1334    0.1330   10.9680 C   0  0  0  0  0  0  0  0  0  0  0  0
   -2.4300   -0.8582   10.3197 C   0  0  0  0  0  0  0  0  0  0  0  0
   -2.4872   -2.1386   10.7222 N   0  0  0  0  0  0  0  0  0  0  0  0
   -3.2572   -2.4603   11.7933 C   0  0  0  0  0  0  0  0  0  0  0  0
   -3.9473   -1.5064   12.4342 N   0  0  0  0  0  0  0  0  0  0  0  0
   -3.9077   -0.2294   12.0551 C   0  0  0  0  0  0  0  0  0  0  0  0
   -4.6343    0.7930   12.7252 N   0  0  0  0  0  0  0  0  0  0  0  0
  1  2  1  0
  3  2  1  6
  3  4  1  0
  4  5  1  0
  5  6  1  0
  6  7  1  0
  7  8  1  6
  6  9  1  6
  5 10  1  1
 10 11  1  0
 11 12  2  0
 12 13  1  0
 13 14  2  0
 14 15  1  0
 15 16  2  0
 16 17  1  0
 17 18  2  0
 18 19  1  0
  7  3  1  0
 14 10  1  0
 18 13  1  0
M  END
$$$$
