
     RDKit          3D

 19 21  0  0  0  0  0  0  0  0999 V2000
    1.1342    1.6568    5.5465 O   0  0  0  0  0  0  0  0  0  0  0  0
   -0.0102    0.8788    5.4525 C   0  0  0  0  0  0  0  0  0  0  0  0
   -0.0640   -0.1861    6.5196 C   0  0  1  0  0  0  0  0  0  0  0  0
   -0.3399    0.3711    7.7682 O   0  0  0  0  0  0  0  0  0  0  0  0
   -0.7946   -0.6535    8.5769 C   0  0  2  0  0  0  0  0  0  0  0  0
   -1.3286   -1.7323    7.7187 C   0  0  1  0  0  0  0  0  0  0  0  0
   -1.2638   -1.0881    6.3274 C   0  0  2  0  0  0  0  0  0  0  0  0
   -1.0464   -2.0481    5.3500 O   0  0  0  0  0  0  0  0  0  0  0  0
   -0.4358   -2.8141    7.6698 O   0  0  0  0  0  0  0  0  0  0  0  0
   -1.6997   -0.1618    9.5755 N   0  0  0  0  0  0  0  0  0  0  0  0
   -2.1024    1.1293    9.6092 C   0  0  0  0  0  0  0  0  0  0  0  0
   -2.9376    1.2703   10.6501 N   0  0  0  0  0  0  0  0  0  0  0  0
   -3.0607    0.0910   11.2629 C   0  0  0  0  0  0  0  0  0  0  0  0
   -2.2819   -0.8269   10.5931 C   0  0  0  0  0  0  0  0  0  0  0  0
   -2.2094   -2.1087   10.9887 N   0  0  0  0  0  0  0  0  0  0  0  0
   -2.9216   -2.5060   12.0744 C   0  0  0  0  0  0  0  0  0  0  0  0
   -3.6838   -1.6240   12.7362 N   0  0  0  0  0  0  0  0  0  0  0  0
   -3.7730   -0.3473   12.3644 C   0  0  0  0  0  0  0  0  0  0  0  0
   -4.5774    0.5992   13.0567 N   0  0  0  0  0  0  0  0  0  0  0  0
  1  2  1  0
  3  2  1  6
  3  4  1  0
  4  5  1  0
  5  6  1  0
  6  7  1  0
  7  8  1  6
  6  9  1  6
  5 10  1  1
 10 11  1  0
 11 12  2  0
 12 13  1  0
 13 14  2  0
 14 15  1  0
 15 16  2  0
 16 17  1  0
 17 18  2  0
 18 19  1  0
  7  3  1  0
 14 10  1  0
 18 13  1  0
M  END
$$$$
