
     RDKit          3D

 19 21  0  0  0  0  0  0  0  0999 V2000
   -0.1987    1.9339    5.8656 O   0  0  0  0  0  0  0  0  0  0  0  0
    0.5913    0.8136    5.6545 C   0  0  0  0  0  0  0  0  0  0  0  0
    0.2110   -0.3304    6.5614 C   0  0  1  0  0  0  0  0  0  0  0  0
   -0.1193    0.1305    7.8357 O   0  0  0  0  0  0  0  0  0  0  0  0
   -0.8501   -0.8687    8.4506 C   0  0  2  0  0  0  0  0  0  0  0  0
   -1.4534   -1.7244    7.4068 C   0  0  1  0  0  0  0  0  0  0  0  0
   -1.0958   -0.9575    6.1266 C   0  0  2  0  0  0  0  0  0  0  0  0
   -0.9295   -1.8294    5.0605 O   0  0  0  0  0  0  0  0  0  0  0  0
   -0.7696   -2.9463    7.3118 O   0  0  0  0  0  0  0  0  0  0  0  0
   -1.7737   -0.3230    9.4031 N   0  0  0  0  0  0  0  0  0  0  0  0
   -2.1203    0.9848    9.4023 C   0  0  0  0  0  0  0  0  0  0  0  0
   -2.9912    1.1778   10.4049 N   0  0  0  0  0  0  0  0  0  0  0  0
   -3.1915    0.0144   11.0277 C   0  0  0  0  0  0  0  0  0  0  0  0
   -2.4265   -0.9465   10.4040 C   0  0  0  0  0  0  0  0  0  0  0  0
   -2.4271   -2.2240   10.8196 N   0  0  0  0  0  0  0  0  0  0  0  0
   -3.2007   -2.5733   11.8794 C   0  0  0  0  0  0  0  0  0  0  0  0
   -3.9504   -1.6491   12.4963 N   0  0  0  0  0  0  0  0  0  0  0  0
   -3.9678   -0.3756   12.1039 C   0  0  0  0  0  0  0  0  0  0  0  0
   -4.7580    0.6154   12.7486 N   0  0  0  0  0  0  0  0  0  0  0  0
  1  2  1  0
  3  2  1  6
  3  4  1  0
  4  5  1  0
  5  6  1  0
  6  7  1  0
  7  8  1  6
  6  9  1  6
  5 10  1  6
 10 11  1  0
 11 12  2  0
 12 13  1  0
 13 14  2  0
 14 15  1  0
 15 16  2  0
 16 17  1  0
 17 18  2  0
 18 19  1  0
  7  3  1  0
 14 10  1  0
 18 13  1  0
M  END
$$$$
