
     RDKit          3D

 19 21  0  0  0  0  0  0  0  0999 V2000
   -0.0859    1.8550    5.9114 O   0  0  0  0  0  0  0  0  0  0  0  0
    0.6275    0.7019    5.6196 C   0  0  0  0  0  0  0  0  0  0  0  0
    0.3236   -0.4156    6.5863 C   0  0  1  0  0  0  0  0  0  0  0  0
    0.0565    0.0847    7.8606 O   0  0  0  0  0  0  0  0  0  0  0  0
   -0.6169   -0.9054    8.5511 C   0  0  2  0  0  0  0  0  0  0  0  0
   -1.2603   -1.8097    7.5743 C   0  0  1  0  0  0  0  0  0  0  0  0
   -0.9923   -1.0829    6.2496 C   0  0  2  0  0  0  0  0  0  0  0  0
   -0.8683   -1.9894    5.2069 O   0  0  0  0  0  0  0  0  0  0  0  0
   -0.5573   -3.0209    7.4830 O   0  0  0  0  0  0  0  0  0  0  0  0
   -1.4964   -0.3434    9.5354 N   0  0  0  0  0  0  0  0  0  0  0  0
   -1.8451    0.9638    9.5269 C   0  0  0  0  0  0  0  0  0  0  0  0
   -2.6689    1.1742   10.5652 N   0  0  0  0  0  0  0  0  0  0  0  0
   -2.8378    0.0222   11.2178 C   0  0  0  0  0  0  0  0  0  0  0  0
   -2.1007   -0.9491   10.5768 C   0  0  0  0  0  0  0  0  0  0  0  0
   -2.0795   -2.2189   11.0152 N   0  0  0  0  0  0  0  0  0  0  0  0
   -2.8024   -2.5496   12.1160 C   0  0  0  0  0  0  0  0  0  0  0  0
   -3.5244   -1.6150   12.7501 N   0  0  0  0  0  0  0  0  0  0  0  0
   -3.5624   -0.3489   12.3358 C   0  0  0  0  0  0  0  0  0  0  0  0
   -4.3238    0.6529   12.9984 N   0  0  0  0  0  0  0  0  0  0  0  0
  1  2  1  0
  3  2  1  6
  3  4  1  0
  4  5  1  0
  5  6  1  0
  6  7  1  0
  7  8  1  6
  6  9  1  6
  5 10  1  1
 10 11  1  0
 11 12  2  0
 12 13  1  0
 13 14  2  0
 14 15  1  0
 15 16  2  0
 16 17  1  0
 17 18  2  0
 18 19  1  0
  7  3  1  0
 14 10  1  0
 18 13  1  0
M  END
$$$$
