
     RDKit          3D

 19 21  0  0  0  0  0  0  0  0999 V2000
   -0.1147    1.9557    5.8863 O   0  0  0  0  0  0  0  0  0  0  0  0
    0.7021    0.8458    5.7293 C   0  0  0  0  0  0  0  0  0  0  0  0
    0.2798   -0.3016    6.6129 C   0  0  1  0  0  0  0  0  0  0  0  0
   -0.0505    0.1475    7.8914 O   0  0  0  0  0  0  0  0  0  0  0  0
   -0.8159   -0.8403    8.4821 C   0  0  2  0  0  0  0  0  0  0  0  0
   -1.4325   -1.6609    7.4182 C   0  0  1  0  0  0  0  0  0  0  0  0
   -1.0398   -0.8836    6.1546 C   0  0  2  0  0  0  0  0  0  0  0  0
   -0.8873   -1.7422    5.0758 O   0  0  0  0  0  0  0  0  0  0  0  0
   -0.7830   -2.9002    7.3095 O   0  0  0  0  0  0  0  0  0  0  0  0
   -1.7335   -0.2840    9.4344 N   0  0  0  0  0  0  0  0  0  0  0  0
   -2.0998    1.0180    9.4057 C   0  0  0  0  0  0  0  0  0  0  0  0
   -2.9585    1.2238   10.4161 N   0  0  0  0  0  0  0  0  0  0  0  0
   -3.1320    0.0740   11.0713 C   0  0  0  0  0  0  0  0  0  0  0  0
   -2.3618   -0.8912   10.4607 C   0  0  0  0  0  0  0  0  0  0  0  0
   -2.3369   -2.1576   10.9086 N   0  0  0  0  0  0  0  0  0  0  0  0
   -3.0893   -2.4910   11.9885 C   0  0  0  0  0  0  0  0  0  0  0  0
   -3.8438   -1.5624   12.5931 N   0  0  0  0  0  0  0  0  0  0  0  0
   -3.8862   -0.2998   12.1687 C   0  0  0  0  0  0  0  0  0  0  0  0
   -4.6817    0.6957   12.8000 N   0  0  0  0  0  0  0  0  0  0  0  0
  1  2  1  0
  3  2  1  6
  3  4  1  0
  4  5  1  0
  5  6  1  0
  6  7  1  0
  7  8  1  6
  6  9  1  6
  5 10  1  6
 10 11  1  0
 11 12  2  0
 12 13  1  0
 13 14  2  0
 14 15  1  0
 15 16  2  0
 16 17  1  0
 17 18  2  0
 18 19  1  0
  7  3  1  0
 14 10  1  0
 18 13  1  0
M  END
$$$$
