
     RDKit          3D

 19 21  0  0  0  0  0  0  0  0999 V2000
   -0.0426    1.7371    5.8467 O   0  0  0  0  0  0  0  0  0  0  0  0
    0.7380    0.6166    5.6045 C   0  0  0  0  0  0  0  0  0  0  0  0
    0.4428   -0.5029    6.5715 C   0  0  1  0  0  0  0  0  0  0  0  0
    0.1579   -0.0035    7.8423 O   0  0  0  0  0  0  0  0  0  0  0  0
   -0.5064   -1.0019    8.5298 C   0  0  2  0  0  0  0  0  0  0  0  0
   -1.1281   -1.9180    7.5501 C   0  0  1  0  0  0  0  0  0  0  0  0
   -0.8601   -1.1906    6.2258 C   0  0  2  0  0  0  0  0  0  0  0  0
   -0.7141   -2.0978    5.1865 O   0  0  0  0  0  0  0  0  0  0  0  0
   -0.4064   -3.1189    7.4677 O   0  0  0  0  0  0  0  0  0  0  0  0
   -1.4021   -0.4506    9.5054 N   0  0  0  0  0  0  0  0  0  0  0  0
   -1.7920    0.8445    9.4745 C   0  0  0  0  0  0  0  0  0  0  0  0
   -2.6209    1.0471   10.5102 N   0  0  0  0  0  0  0  0  0  0  0  0
   -2.7527   -0.0980   11.1832 C   0  0  0  0  0  0  0  0  0  0  0  0
   -1.9860   -1.0567   10.5583 C   0  0  0  0  0  0  0  0  0  0  0  0
   -1.9242   -2.3172   11.0189 N   0  0  0  0  0  0  0  0  0  0  0  0
   -2.6352   -2.6511   12.1265 C   0  0  0  0  0  0  0  0  0  0  0  0
   -3.3858   -1.7287   12.7452 N   0  0  0  0  0  0  0  0  0  0  0  0
   -3.4641   -0.4720   12.3087 C   0  0  0  0  0  0  0  0  0  0  0  0
   -4.2561    0.5168   12.9547 N   0  0  0  0  0  0  0  0  0  0  0  0
  1  2  1  0
  3  2  1  6
  3  4  1  0
  4  5  1  0
  5  6  1  0
  6  7  1  0
  7  8  1  6
  6  9  1  6
  5 10  1  1
 10 11  1  0
 11 12  2  0
 12 13  1  0
 13 14  2  0
 14 15  1  0
 15 16  2  0
 16 17  1  0
 17 18  2  0
 18 19  1  0
  7  3  1  0
 14 10  1  0
 18 13  1  0
M  END
$$$$
