
     RDKit          3D

 19 21  0  0  0  0  0  0  0  0999 V2000
    0.1332    1.9213    6.0696 O   0  0  0  0  0  0  0  0  0  0  0  0
    0.6385    0.6993    5.6511 C   0  0  0  0  0  0  0  0  0  0  0  0
    0.3792   -0.3976    6.6537 C   0  0  1  0  0  0  0  0  0  0  0  0
    0.0973    0.1324    7.9127 O   0  0  0  0  0  0  0  0  0  0  0  0
   -0.5368   -0.8597    8.6367 C   0  0  2  0  0  0  0  0  0  0  0  0
   -1.1488   -1.8176    7.6915 C   0  0  1  0  0  0  0  0  0  0  0  0
   -0.9118   -1.1236    6.3434 C   0  0  2  0  0  0  0  0  0  0  0  0
   -0.7572   -2.0574    5.3294 O   0  0  0  0  0  0  0  0  0  0  0  0
   -0.4014   -3.0042    7.6355 O   0  0  0  0  0  0  0  0  0  0  0  0
   -1.4337   -0.2999    9.6064 N   0  0  0  0  0  0  0  0  0  0  0  0
   -1.6942    1.0264    9.6651 C   0  0  0  0  0  0  0  0  0  0  0  0
   -2.5621    1.2289   10.6684 N   0  0  0  0  0  0  0  0  0  0  0  0
   -2.8450    0.0532   11.2333 C   0  0  0  0  0  0  0  0  0  0  0  0
   -2.1373   -0.9255   10.5709 C   0  0  0  0  0  0  0  0  0  0  0  0
   -2.2259   -2.2184   10.9251 N   0  0  0  0  0  0  0  0  0  0  0  0
   -3.0329   -2.5656   11.9604 C   0  0  0  0  0  0  0  0  0  0  0  0
   -3.7277   -1.6241   12.6144 N   0  0  0  0  0  0  0  0  0  0  0  0
   -3.6574   -0.3352   12.2831 C   0  0  0  0  0  0  0  0  0  0  0  0
   -4.3886    0.6742   12.9677 N   0  0  0  0  0  0  0  0  0  0  0  0
  1  2  1  0
  3  2  1  6
  3  4  1  0
  4  5  1  0
  5  6  1  0
  6  7  1  0
  7  8  1  6
  6  9  1  6
  5 10  1  6
 10 11  1  0
 11 12  2  0
 12 13  1  0
 13 14  2  0
 14 15  1  0
 15 16  2  0
 16 17  1  0
 17 18  2  0
 18 19  1  0
  7  3  1  0
 14 10  1  0
 18 13  1  0
M  END
$$$$
