
     RDKit          3D

 19 21  0  0  0  0  0  0  0  0999 V2000
   -0.2419    1.8379    5.7178 O   0  0  0  0  0  0  0  0  0  0  0  0
    0.5256    0.7144    5.4484 C   0  0  0  0  0  0  0  0  0  0  0  0
    0.2764   -0.3961    6.4385 C   0  0  1  0  0  0  0  0  0  0  0  0
    0.0034    0.1168    7.7066 O   0  0  0  0  0  0  0  0  0  0  0  0
   -0.6229   -0.8861    8.4224 C   0  0  2  0  0  0  0  0  0  0  0  0
   -1.2404   -1.8329    7.4695 C   0  0  1  0  0  0  0  0  0  0  0  0
   -1.0155   -1.1207    6.1289 C   0  0  2  0  0  0  0  0  0  0  0  0
   -0.8670   -2.0408    5.1015 O   0  0  0  0  0  0  0  0  0  0  0  0
   -0.4911   -3.0170    7.3921 O   0  0  0  0  0  0  0  0  0  0  0  0
   -1.5133   -0.3410    9.4064 N   0  0  0  0  0  0  0  0  0  0  0  0
   -1.8102    0.9779    9.4569 C   0  0  0  0  0  0  0  0  0  0  0  0
   -2.6606    1.1670   10.4776 N   0  0  0  0  0  0  0  0  0  0  0  0
   -2.8969   -0.0097   11.0615 C   0  0  0  0  0  0  0  0  0  0  0  0
   -2.1766   -0.9753   10.3936 C   0  0  0  0  0  0  0  0  0  0  0  0
   -2.2201   -2.2661   10.7635 N   0  0  0  0  0  0  0  0  0  0  0  0
   -2.9931   -2.6243   11.8208 C   0  0  0  0  0  0  0  0  0  0  0  0
   -3.6997   -1.6956   12.4804 N   0  0  0  0  0  0  0  0  0  0  0  0
   -3.6738   -0.4090   12.1338 C   0  0  0  0  0  0  0  0  0  0  0  0
   -4.4179    0.5869   12.8241 N   0  0  0  0  0  0  0  0  0  0  0  0
  1  2  1  0
  3  2  1  6
  3  4  1  0
  4  5  1  0
  5  6  1  0
  6  7  1  0
  7  8  1  6
  6  9  1  6
  5 10  1  1
 10 11  1  0
 11 12  2  0
 12 13  1  0
 13 14  2  0
 14 15  1  0
 15 16  2  0
 16 17  1  0
 17 18  2  0
 18 19  1  0
  7  3  1  0
 14 10  1  0
 18 13  1  0
M  END
$$$$
