
     RDKit          3D

 19 21  0  0  0  0  0  0  0  0999 V2000
   -0.0264    1.8976    6.0057 O   0  0  0  0  0  0  0  0  0  0  0  0
    0.7321    0.7708    5.7251 C   0  0  0  0  0  0  0  0  0  0  0  0
    0.3902   -0.3858    6.6313 C   0  0  1  0  0  0  0  0  0  0  0  0
    0.0936    0.0593    7.9195 O   0  0  0  0  0  0  0  0  0  0  0  0
   -0.6088   -0.9532    8.5457 C   0  0  2  0  0  0  0  0  0  0  0  0
   -1.2346   -1.8046    7.5117 C   0  0  1  0  0  0  0  0  0  0  0  0
   -0.9229   -1.0216    6.2292 C   0  0  2  0  0  0  0  0  0  0  0  0
   -0.7799   -1.8813    5.1500 O   0  0  0  0  0  0  0  0  0  0  0  0
   -0.5421   -3.0186    7.3841 O   0  0  0  0  0  0  0  0  0  0  0  0
   -1.5088   -0.4261    9.5307 N   0  0  0  0  0  0  0  0  0  0  0  0
   -1.8630    0.8793    9.5573 C   0  0  0  0  0  0  0  0  0  0  0  0
   -2.7069    1.0533   10.5860 N   0  0  0  0  0  0  0  0  0  0  0  0
   -2.8830   -0.1195   11.1983 C   0  0  0  0  0  0  0  0  0  0  0  0
   -2.1299   -1.0671   10.5407 C   0  0  0  0  0  0  0  0  0  0  0  0
   -2.1113   -2.3501   10.9388 N   0  0  0  0  0  0  0  0  0  0  0  0
   -2.8532   -2.7185   12.0147 C   0  0  0  0  0  0  0  0  0  0  0  0
   -3.5910   -1.8073   12.6646 N   0  0  0  0  0  0  0  0  0  0  0  0
   -3.6268   -0.5288   12.2901 C   0  0  0  0  0  0  0  0  0  0  0  0
   -4.4047    0.4485   12.9699 N   0  0  0  0  0  0  0  0  0  0  0  0
  1  2  1  0
  3  2  1  6
  3  4  1  0
  4  5  1  0
  5  6  1  0
  6  7  1  0
  7  8  1  6
  6  9  1  6
  5 10  1  1
 10 11  1  0
 11 12  2  0
 12 13  1  0
 13 14  2  0
 14 15  1  0
 15 16  2  0
 16 17  1  0
 17 18  2  0
 18 19  1  0
  7  3  1  0
 14 10  1  0
 18 13  1  0
M  END
$$$$
