
     RDKit          3D

 19 21  0  0  0  0  0  0  0  0999 V2000
   -0.1749    1.6538    5.9205 O   0  0  0  0  0  0  0  0  0  0  0  0
    0.5920    0.5321    5.6424 C   0  0  0  0  0  0  0  0  0  0  0  0
    0.3367   -0.5888    6.6191 C   0  0  1  0  0  0  0  0  0  0  0  0
    0.0791   -0.0901    7.8960 O   0  0  0  0  0  0  0  0  0  0  0  0
   -0.5541   -1.0951    8.6028 C   0  0  2  0  0  0  0  0  0  0  0  0
   -1.1899   -2.0212    7.6418 C   0  0  1  0  0  0  0  0  0  0  0  0
   -0.9662   -1.2935    6.3093 C   0  0  2  0  0  0  0  0  0  0  0  0
   -0.8363   -2.2012    5.2684 O   0  0  0  0  0  0  0  0  0  0  0  0
   -0.4556   -3.2131    7.5427 O   0  0  0  0  0  0  0  0  0  0  0  0
   -1.4306   -0.5528    9.6007 N   0  0  0  0  0  0  0  0  0  0  0  0
   -1.7956    0.7499    9.6074 C   0  0  0  0  0  0  0  0  0  0  0  0
   -2.6116    0.9407   10.6556 N   0  0  0  0  0  0  0  0  0  0  0  0
   -2.7597   -0.2190   11.2994 C   0  0  0  0  0  0  0  0  0  0  0  0
   -2.0170   -1.1753   10.6425 C   0  0  0  0  0  0  0  0  0  0  0  0
   -1.9757   -2.4485   11.0692 N   0  0  0  0  0  0  0  0  0  0  0  0
   -2.6835   -2.7980   12.1740 C   0  0  0  0  0  0  0  0  0  0  0  0
   -3.4108   -1.8782   12.8236 N   0  0  0  0  0  0  0  0  0  0  0  0
   -3.4686   -0.6091   12.4211 C   0  0  0  0  0  0  0  0  0  0  0  0
   -4.2357    0.3772   13.1001 N   0  0  0  0  0  0  0  0  0  0  0  0
  1  2  1  0
  3  2  1  6
  3  4  1  0
  4  5  1  0
  5  6  1  0
  6  7  1  0
  7  8  1  6
  6  9  1  6
  5 10  1  1
 10 11  1  0
 11 12  2  0
 12 13  1  0
 13 14  2  0
 14 15  1  0
 15 16  2  0
 16 17  1  0
 17 18  2  0
 18 19  1  0
  7  3  1  0
 14 10  1  0
 18 13  1  0
M  END
$$$$
