
     RDKit          3D

 19 21  0  0  0  0  0  0  0  0999 V2000
   -0.1946    1.7433    5.6037 O   0  0  0  0  0  0  0  0  0  0  0  0
    0.5427    0.5948    5.3569 C   0  0  0  0  0  0  0  0  0  0  0  0
    0.2431   -0.4989    6.3517 C   0  0  1  0  0  0  0  0  0  0  0  0
   -0.0397    0.0334    7.6096 O   0  0  0  0  0  0  0  0  0  0  0  0
   -0.7078   -0.9447    8.3219 C   0  0  2  0  0  0  0  0  0  0  0  0
   -1.3333   -1.8827    7.3656 C   0  0  1  0  0  0  0  0  0  0  0  0
   -1.0626   -1.1898    6.0234 C   0  0  2  0  0  0  0  0  0  0  0  0
   -0.9203   -2.1234    5.0072 O   0  0  0  0  0  0  0  0  0  0  0  0
   -0.6165   -3.0881    7.3134 O   0  0  0  0  0  0  0  0  0  0  0  0
   -1.6012   -0.3655    9.2835 N   0  0  0  0  0  0  0  0  0  0  0  0
   -1.9412    0.9436    9.2533 C   0  0  0  0  0  0  0  0  0  0  0  0
   -2.7822    1.1715   10.2739 N   0  0  0  0  0  0  0  0  0  0  0  0
   -2.9705    0.0284   10.9367 C   0  0  0  0  0  0  0  0  0  0  0  0
   -2.2283   -0.9551   10.3207 C   0  0  0  0  0  0  0  0  0  0  0  0
   -2.2234   -2.2197   10.7742 N   0  0  0  0  0  0  0  0  0  0  0  0
   -2.9683   -2.5328   11.8654 C   0  0  0  0  0  0  0  0  0  0  0  0
   -3.6955   -1.5862   12.4754 N   0  0  0  0  0  0  0  0  0  0  0  0
   -3.7177   -0.3249   12.0457 C   0  0  0  0  0  0  0  0  0  0  0  0
   -4.4843    0.6895   12.6825 N   0  0  0  0  0  0  0  0  0  0  0  0
  1  2  1  0
  3  2  1  6
  3  4  1  0
  4  5  1  0
  5  6  1  0
  6  7  1  0
  7  8  1  6
  6  9  1  6
  5 10  1  6
 10 11  1  0
 11 12  2  0
 12 13  1  0
 13 14  2  0
 14 15  1  0
 15 16  2  0
 16 17  1  0
 17 18  2  0
 18 19  1  0
  7  3  1  0
 14 10  1  0
 18 13  1  0
M  END
$$$$
