
     RDKit          3D

 19 21  0  0  0  0  0  0  0  0999 V2000
   -0.2256    1.8427    5.9645 O   0  0  0  0  0  0  0  0  0  0  0  0
    0.5871    0.7469    5.7145 C   0  0  0  0  0  0  0  0  0  0  0  0
    0.3923   -0.3503    6.7312 C   0  0  1  0  0  0  0  0  0  0  0  0
    0.1356    0.1798    7.9956 O   0  0  0  0  0  0  0  0  0  0  0  0
   -0.4456   -0.8255    8.7454 C   0  0  2  0  0  0  0  0  0  0  0  0
   -1.0593   -1.8071    7.8260 C   0  0  1  0  0  0  0  0  0  0  0  0
   -0.8862   -1.1156    6.4671 C   0  0  2  0  0  0  0  0  0  0  0  0
   -0.7369   -2.0513    5.4539 O   0  0  0  0  0  0  0  0  0  0  0  0
   -0.2797   -2.9718    7.7528 O   0  0  0  0  0  0  0  0  0  0  0  0
   -1.3269   -0.2855    9.7403 N   0  0  0  0  0  0  0  0  0  0  0  0
   -1.6290    1.0321    9.7959 C   0  0  0  0  0  0  0  0  0  0  0  0
   -2.4684    1.2162   10.8266 N   0  0  0  0  0  0  0  0  0  0  0  0
   -2.6927    0.0378   11.4117 C   0  0  0  0  0  0  0  0  0  0  0  0
   -1.9760   -0.9239   10.7342 C   0  0  0  0  0  0  0  0  0  0  0  0
   -2.0096   -2.2153   11.1030 N   0  0  0  0  0  0  0  0  0  0  0  0
   -2.7687   -2.5782   12.1687 C   0  0  0  0  0  0  0  0  0  0  0  0
   -3.4717   -1.6534   12.8377 N   0  0  0  0  0  0  0  0  0  0  0  0
   -3.4555   -0.3663   12.4924 C   0  0  0  0  0  0  0  0  0  0  0  0
   -4.1959    0.6256   13.1925 N   0  0  0  0  0  0  0  0  0  0  0  0
  1  2  1  0
  3  2  1  6
  3  4  1  0
  4  5  1  0
  5  6  1  0
  6  7  1  0
  7  8  1  6
  6  9  1  6
  5 10  1  1
 10 11  1  0
 11 12  2  0
 12 13  1  0
 13 14  2  0
 14 15  1  0
 15 16  2  0
 16 17  1  0
 17 18  2  0
 18 19  1  0
  7  3  1  0
 14 10  1  0
 18 13  1  0
M  END
$$$$
