
     RDKit          3D

 19 21  0  0  0  0  0  0  0  0999 V2000
    1.0226   -3.2895    7.2645 O   0  0  0  0  0  0  0  0  0  0  0  0
    0.4727   -2.7687    6.1026 C   0  0  0  0  0  0  0  0  0  0  0  0
   -0.5409   -1.6882    6.3869 C   0  0  1  0  0  0  0  0  0  0  0  0
   -1.2927   -1.9942    7.5212 O   0  0  0  0  0  0  0  0  0  0  0  0
   -1.8640   -0.8140    7.9585 C   0  0  2  0  0  0  0  0  0  0  0  0
   -1.0577    0.3176    7.4535 C   0  0  1  0  0  0  0  0  0  0  0  0
    0.1375   -0.4066    6.8196 C   0  0  2  0  0  0  0  0  0  0  0  0
    0.6343    0.3128    5.7425 O   0  0  0  0  0  0  0  0  0  0  0  0
   -1.7128    0.9565    6.3894 O   0  0  0  0  0  0  0  0  0  0  0  0
   -2.0690   -0.8332    9.3783 N   0  0  0  0  0  0  0  0  0  0  0  0
   -1.5692   -1.8139   10.1648 C   0  0  0  0  0  0  0  0  0  0  0  0
   -1.9306   -1.5482   11.4295 N   0  0  0  0  0  0  0  0  0  0  0  0
   -2.6452   -0.4210   11.4426 C   0  0  0  0  0  0  0  0  0  0  0  0
   -2.7415    0.0441   10.1496 C   0  0  0  0  0  0  0  0  0  0  0  0
   -3.4098    1.1721    9.8565 N   0  0  0  0  0  0  0  0  0  0  0  0
   -4.0031    1.8679   10.8602 C   0  0  0  0  0  0  0  0  0  0  0  0
   -3.9178    1.4275   12.1234 N   0  0  0  0  0  0  0  0  0  0  0  0
   -3.2612    0.3121   12.4406 C   0  0  0  0  0  0  0  0  0  0  0  0
   -3.1625   -0.1670   13.7759 N   0  0  0  0  0  0  0  0  0  0  0  0
  1  2  1  0
  3  2  1  1
  3  4  1  0
  4  5  1  0
  5  6  1  0
  6  7  1  0
  7  8  1  6
  6  9  1  6
  5 10  1  1
 10 11  1  0
 11 12  2  0
 12 13  1  0
 13 14  2  0
 14 15  1  0
 15 16  2  0
 16 17  1  0
 17 18  2  0
 18 19  1  0
  7  3  1  0
 14 10  1  0
 18 13  1  0
M  END
$$$$
