
     RDKit          3D

 19 21  0  0  0  0  0  0  0  0999 V2000
   -0.3080    1.7307    5.6406 O   0  0  0  0  0  0  0  0  0  0  0  0
    0.4532    0.5987    5.3899 C   0  0  0  0  0  0  0  0  0  0  0  0
    0.1584   -0.5133    6.3656 C   0  0  1  0  0  0  0  0  0  0  0  0
   -0.1208   -0.0044    7.6339 O   0  0  0  0  0  0  0  0  0  0  0  0
   -0.7854   -0.9961    8.3306 C   0  0  2  0  0  0  0  0  0  0  0  0
   -1.4130   -1.9173    7.3594 C   0  0  1  0  0  0  0  0  0  0  0  0
   -1.1476   -1.1998    6.0292 C   0  0  2  0  0  0  0  0  0  0  0  0
   -1.0077   -2.1145    4.9957 O   0  0  0  0  0  0  0  0  0  0  0  0
   -0.6949   -3.1207    7.2828 O   0  0  0  0  0  0  0  0  0  0  0  0
   -1.6762   -0.4357    9.3055 N   0  0  0  0  0  0  0  0  0  0  0  0
   -1.9951    0.8790    9.3179 C   0  0  0  0  0  0  0  0  0  0  0  0
   -2.8396    1.0855   10.3402 N   0  0  0  0  0  0  0  0  0  0  0  0
   -3.0507   -0.0763   10.9623 C   0  0  0  0  0  0  0  0  0  0  0  0
   -2.3200   -1.0501   10.3179 C   0  0  0  0  0  0  0  0  0  0  0  0
   -2.3383   -2.3293   10.7279 N   0  0  0  0  0  0  0  0  0  0  0  0
   -3.0958   -2.6674   11.8029 C   0  0  0  0  0  0  0  0  0  0  0  0
   -3.8122   -1.7305   12.4400 N   0  0  0  0  0  0  0  0  0  0  0  0
   -3.8113   -0.4551   12.0536 C   0  0  0  0  0  0  0  0  0  0  0  0
   -4.5661    0.5492   12.7197 N   0  0  0  0  0  0  0  0  0  0  0  0
  1  2  1  0
  3  2  1  6
  3  4  1  0
  4  5  1  0
  5  6  1  0
  6  7  1  0
  7  8  1  6
  6  9  1  6
  5 10  1  1
 10 11  1  0
 11 12  2  0
 12 13  1  0
 13 14  2  0
 14 15  1  0
 15 16  2  0
 16 17  1  0
 17 18  2  0
 18 19  1  0
  7  3  1  0
 14 10  1  0
 18 13  1  0
M  END
$$$$
