
     RDKit          3D

 19 21  0  0  0  0  0  0  0  0999 V2000
   -0.2411    2.0201    6.2138 O   0  0  0  0  0  0  0  0  0  0  0  0
    0.4315    0.8735    5.8180 C   0  0  0  0  0  0  0  0  0  0  0  0
    0.0887   -0.3146    6.6820 C   0  0  1  0  0  0  0  0  0  0  0  0
   -0.2054    0.0840    7.9859 O   0  0  0  0  0  0  0  0  0  0  0  0
   -0.9087   -0.9493    8.5760 C   0  0  2  0  0  0  0  0  0  0  0  0
   -1.5374   -1.7616    7.5127 C   0  0  1  0  0  0  0  0  0  0  0  0
   -1.2260   -0.9332    6.2590 C   0  0  2  0  0  0  0  0  0  0  0  0
   -1.0860   -1.7535    5.1491 O   0  0  0  0  0  0  0  0  0  0  0  0
   -0.8472   -2.9714    7.3402 O   0  0  0  0  0  0  0  0  0  0  0  0
   -1.8065   -0.4568    9.5807 N   0  0  0  0  0  0  0  0  0  0  0  0
   -2.1970    0.8377    9.6253 C   0  0  0  0  0  0  0  0  0  0  0  0
   -3.0279    0.9786   10.6696 N   0  0  0  0  0  0  0  0  0  0  0  0
   -3.1604   -0.2041   11.2738 C   0  0  0  0  0  0  0  0  0  0  0  0
   -2.3920   -1.1240   10.5950 C   0  0  0  0  0  0  0  0  0  0  0  0
   -2.3304   -2.4095   10.9808 N   0  0  0  0  0  0  0  0  0  0  0  0
   -3.0432   -2.8082   12.0654 C   0  0  0  0  0  0  0  0  0  0  0  0
   -3.7954   -1.9242   12.7360 N   0  0  0  0  0  0  0  0  0  0  0  0
   -3.8737   -0.6440   12.3740 C   0  0  0  0  0  0  0  0  0  0  0  0
   -4.6673    0.3048   13.0757 N   0  0  0  0  0  0  0  0  0  0  0  0
  1  2  1  0
  3  2  1  6
  3  4  1  0
  4  5  1  0
  5  6  1  0
  6  7  1  0
  7  8  1  6
  6  9  1  6
  5 10  1  1
 10 11  1  0
 11 12  2  0
 12 13  1  0
 13 14  2  0
 14 15  1  0
 15 16  2  0
 16 17  1  0
 17 18  2  0
 18 19  1  0
  7  3  1  0
 14 10  1  0
 18 13  1  0
M  END
$$$$
