
     RDKit          3D

 19 21  0  0  0  0  0  0  0  0999 V2000
   -0.2701    1.9270    5.7874 O   0  0  0  0  0  0  0  0  0  0  0  0
    0.4944    0.7888    5.5784 C   0  0  0  0  0  0  0  0  0  0  0  0
    0.2120   -0.2828    6.6019 C   0  0  1  0  0  0  0  0  0  0  0  0
   -0.0581    0.2773    7.8504 O   0  0  0  0  0  0  0  0  0  0  0  0
   -0.7130   -0.6868    8.5933 C   0  0  2  0  0  0  0  0  0  0  0  0
   -1.3457   -1.6495    7.6667 C   0  0  1  0  0  0  0  0  0  0  0  0
   -1.0944   -0.9868    6.3056 C   0  0  2  0  0  0  0  0  0  0  0  0
   -0.9600   -1.9431    5.3097 O   0  0  0  0  0  0  0  0  0  0  0  0
   -0.6239   -2.8526    7.6337 O   0  0  0  0  0  0  0  0  0  0  0  0
   -1.5975   -0.0894    9.5520 N   0  0  0  0  0  0  0  0  0  0  0  0
   -1.9172    1.2247    9.5156 C   0  0  0  0  0  0  0  0  0  0  0  0
   -2.7547    1.4703   10.5349 N   0  0  0  0  0  0  0  0  0  0  0  0
   -2.9606    0.3334   11.2032 C   0  0  0  0  0  0  0  0  0  0  0  0
   -2.2336   -0.6643   10.5919 C   0  0  0  0  0  0  0  0  0  0  0  0
   -2.2482   -1.9266   11.0515 N   0  0  0  0  0  0  0  0  0  0  0  0
   -2.9979   -2.2230   12.1441 C   0  0  0  0  0  0  0  0  0  0  0  0
   -3.7105   -1.2625   12.7494 N   0  0  0  0  0  0  0  0  0  0  0  0
   -3.7132   -0.0030   12.3137 C   0  0  0  0  0  0  0  0  0  0  0  0
   -4.4642    1.0261   12.9456 N   0  0  0  0  0  0  0  0  0  0  0  0
  1  2  1  0
  3  2  1  6
  3  4  1  0
  4  5  1  0
  5  6  1  0
  6  7  1  0
  7  8  1  6
  6  9  1  6
  5 10  1  6
 10 11  1  0
 11 12  2  0
 12 13  1  0
 13 14  2  0
 14 15  1  0
 15 16  2  0
 16 17  1  0
 17 18  2  0
 18 19  1  0
  7  3  1  0
 14 10  1  0
 18 13  1  0
M  END
$$$$
