
     RDKit          3D

 19 21  0  0  0  0  0  0  0  0999 V2000
   -0.0541    1.7642    5.8207 O   0  0  0  0  0  0  0  0  0  0  0  0
    0.6298    0.5950    5.5225 C   0  0  0  0  0  0  0  0  0  0  0  0
    0.3263   -0.5086    6.5052 C   0  0  1  0  0  0  0  0  0  0  0  0
    0.0377    0.0111    7.7670 O   0  0  0  0  0  0  0  0  0  0  0  0
   -0.6332   -0.9742    8.4666 C   0  0  2  0  0  0  0  0  0  0  0  0
   -1.2541   -1.9029    7.4983 C   0  0  1  0  0  0  0  0  0  0  0  0
   -0.9777   -1.1966    6.1642 C   0  0  2  0  0  0  0  0  0  0  0  0
   -0.8305   -2.1200    5.1395 O   0  0  0  0  0  0  0  0  0  0  0  0
   -0.5365   -3.1074    7.4373 O   0  0  0  0  0  0  0  0  0  0  0  0
   -1.5311   -0.4048    9.4299 N   0  0  0  0  0  0  0  0  0  0  0  0
   -1.8739    0.9037    9.4093 C   0  0  0  0  0  0  0  0  0  0  0  0
   -2.7188    1.1213   10.4289 N   0  0  0  0  0  0  0  0  0  0  0  0
   -2.9067   -0.0276   11.0817 C   0  0  0  0  0  0  0  0  0  0  0  0
   -2.1603   -1.0043   10.4602 C   0  0  0  0  0  0  0  0  0  0  0  0
   -2.1541   -2.2726   10.9033 N   0  0  0  0  0  0  0  0  0  0  0  0
   -2.9019   -2.5962   11.9894 C   0  0  0  0  0  0  0  0  0  0  0  0
   -3.6333   -1.6563   12.6046 N   0  0  0  0  0  0  0  0  0  0  0  0
   -3.6569   -0.3916   12.1852 C   0  0  0  0  0  0  0  0  0  0  0  0
   -4.4279    0.6159   12.8277 N   0  0  0  0  0  0  0  0  0  0  0  0
  1  2  1  0
  3  2  1  6
  3  4  1  0
  4  5  1  0
  5  6  1  0
  6  7  1  0
  7  8  1  6
  6  9  1  6
  5 10  1  6
 10 11  1  0
 11 12  2  0
 12 13  1  0
 13 14  2  0
 14 15  1  0
 15 16  2  0
 16 17  1  0
 17 18  2  0
 18 19  1  0
  7  3  1  0
 14 10  1  0
 18 13  1  0
M  END
$$$$
