
     RDKit          3D

 19 21  0  0  0  0  0  0  0  0999 V2000
   -0.0476    1.7510    5.8875 O   0  0  0  0  0  0  0  0  0  0  0  0
    0.6521    0.5895    5.5961 C   0  0  0  0  0  0  0  0  0  0  0  0
    0.3883   -0.5020    6.6034 C   0  0  1  0  0  0  0  0  0  0  0  0
    0.1133    0.0345    7.8612 O   0  0  0  0  0  0  0  0  0  0  0  0
   -0.5253   -0.9508    8.5905 C   0  0  2  0  0  0  0  0  0  0  0  0
   -1.1461   -1.9082    7.6505 C   0  0  1  0  0  0  0  0  0  0  0  0
   -0.9082   -1.2207    6.2993 C   0  0  2  0  0  0  0  0  0  0  0  0
   -0.7625   -2.1592    5.2882 O   0  0  0  0  0  0  0  0  0  0  0  0
   -0.4067   -3.0998    7.5969 O   0  0  0  0  0  0  0  0  0  0  0  0
   -1.4158   -0.3816    9.5606 N   0  0  0  0  0  0  0  0  0  0  0  0
   -1.7727    0.9231    9.5323 C   0  0  0  0  0  0  0  0  0  0  0  0
   -2.6058    1.1418   10.5613 N   0  0  0  0  0  0  0  0  0  0  0  0
   -2.7727   -0.0027   11.2275 C   0  0  0  0  0  0  0  0  0  0  0  0
   -2.0246   -0.9775   10.6051 C   0  0  0  0  0  0  0  0  0  0  0  0
   -1.9989   -2.2413   11.0601 N   0  0  0  0  0  0  0  0  0  0  0  0
   -2.7284   -2.5622   12.1595 C   0  0  0  0  0  0  0  0  0  0  0  0
   -3.4612   -1.6241   12.7758 N   0  0  0  0  0  0  0  0  0  0  0  0
   -3.5038   -0.3638   12.3447 C   0  0  0  0  0  0  0  0  0  0  0  0
   -4.2765    0.6417   12.9881 N   0  0  0  0  0  0  0  0  0  0  0  0
  1  2  1  0
  3  2  1  6
  3  4  1  0
  4  5  1  0
  5  6  1  0
  6  7  1  0
  7  8  1  6
  6  9  1  6
  5 10  1  1
 10 11  1  0
 11 12  2  0
 12 13  1  0
 13 14  2  0
 14 15  1  0
 15 16  2  0
 16 17  1  0
 17 18  2  0
 18 19  1  0
  7  3  1  0
 14 10  1  0
 18 13  1  0
M  END
$$$$
