
     RDKit          3D

 19 21  0  0  0  0  0  0  0  0999 V2000
   -0.2248    1.8237    5.8229 O   0  0  0  0  0  0  0  0  0  0  0  0
    0.5499    0.7034    5.5614 C   0  0  0  0  0  0  0  0  0  0  0  0
    0.2696   -0.4209    6.5273 C   0  0  1  0  0  0  0  0  0  0  0  0
   -0.0095    0.0728    7.8016 O   0  0  0  0  0  0  0  0  0  0  0  0
   -0.6618   -0.9321    8.4909 C   0  0  2  0  0  0  0  0  0  0  0  0
   -1.2843   -1.8497    7.5132 C   0  0  1  0  0  0  0  0  0  0  0  0
   -1.0310   -1.1166    6.1890 C   0  0  2  0  0  0  0  0  0  0  0  0
   -0.8864   -2.0197    5.1461 O   0  0  0  0  0  0  0  0  0  0  0  0
   -0.5550   -3.0452    7.4220 O   0  0  0  0  0  0  0  0  0  0  0  0
   -1.5541   -0.3898    9.4747 N   0  0  0  0  0  0  0  0  0  0  0  0
   -1.8802    0.9228    9.5055 C   0  0  0  0  0  0  0  0  0  0  0  0
   -2.7242    1.1107   10.5317 N   0  0  0  0  0  0  0  0  0  0  0  0
   -2.9279   -0.0606   11.1384 C   0  0  0  0  0  0  0  0  0  0  0  0
   -2.1928   -1.0214   10.4797 C   0  0  0  0  0  0  0  0  0  0  0  0
   -2.2035   -2.3062   10.8723 N   0  0  0  0  0  0  0  0  0  0  0  0
   -2.9573   -2.6629   11.9438 C   0  0  0  0  0  0  0  0  0  0  0  0
   -3.6779   -1.7388   12.5947 N   0  0  0  0  0  0  0  0  0  0  0  0
   -3.6846   -0.4583   12.2256 C   0  0  0  0  0  0  0  0  0  0  0  0
   -4.4439    0.5327   12.9064 N   0  0  0  0  0  0  0  0  0  0  0  0
  1  2  1  0
  3  2  1  6
  3  4  1  0
  4  5  1  0
  5  6  1  0
  6  7  1  0
  7  8  1  6
  6  9  1  6
  5 10  1  1
 10 11  1  0
 11 12  2  0
 12 13  1  0
 13 14  2  0
 14 15  1  0
 15 16  2  0
 16 17  1  0
 17 18  2  0
 18 19  1  0
  7  3  1  0
 14 10  1  0
 18 13  1  0
M  END
$$$$
