
     RDKit          3D

 19 21  0  0  0  0  0  0  0  0999 V2000
   -0.3075    2.0270    5.8602 O   0  0  0  0  0  0  0  0  0  0  0  0
    0.5213    0.9318    5.6673 C   0  0  0  0  0  0  0  0  0  0  0  0
    0.1383   -0.2337    6.5452 C   0  0  1  0  0  0  0  0  0  0  0  0
   -0.1642    0.1928    7.8383 O   0  0  0  0  0  0  0  0  0  0  0  0
   -0.9001   -0.8139    8.4346 C   0  0  2  0  0  0  0  0  0  0  0  0
   -1.5332   -1.6283    7.3755 C   0  0  1  0  0  0  0  0  0  0  0  0
   -1.1847   -0.8279    6.1134 C   0  0  2  0  0  0  0  0  0  0  0  0
   -1.0490   -1.6691    5.0187 O   0  0  0  0  0  0  0  0  0  0  0  0
   -0.8697   -2.8566    7.2321 O   0  0  0  0  0  0  0  0  0  0  0  0
   -1.7998   -0.2840    9.4185 N   0  0  0  0  0  0  0  0  0  0  0  0
   -2.1566    1.0208    9.4394 C   0  0  0  0  0  0  0  0  0  0  0  0
   -2.9993    1.1979   10.4686 N   0  0  0  0  0  0  0  0  0  0  0  0
   -3.1721    0.0276   11.0867 C   0  0  0  0  0  0  0  0  0  0  0  0
   -2.4181   -0.9215   10.4324 C   0  0  0  0  0  0  0  0  0  0  0  0
   -2.3963   -2.2026   10.8364 N   0  0  0  0  0  0  0  0  0  0  0  0
   -3.1359   -2.5674   11.9151 C   0  0  0  0  0  0  0  0  0  0  0  0
   -3.8746   -1.6547   12.5619 N   0  0  0  0  0  0  0  0  0  0  0  0
   -3.9135   -0.3781   12.1815 C   0  0  0  0  0  0  0  0  0  0  0  0
   -4.6923    0.6008   12.8578 N   0  0  0  0  0  0  0  0  0  0  0  0
  1  2  1  0
  3  2  1  6
  3  4  1  0
  4  5  1  0
  5  6  1  0
  6  7  1  0
  7  8  1  6
  6  9  1  6
  5 10  1  1
 10 11  1  0
 11 12  2  0
 12 13  1  0
 13 14  2  0
 14 15  1  0
 15 16  2  0
 16 17  1  0
 17 18  2  0
 18 19  1  0
  7  3  1  0
 14 10  1  0
 18 13  1  0
M  END
$$$$
