
     RDKit          3D

 19 21  0  0  0  0  0  0  0  0999 V2000
   -0.0361    1.8571    6.1660 O   0  0  0  0  0  0  0  0  0  0  0  0
    0.6184    0.6937    5.7896 C   0  0  0  0  0  0  0  0  0  0  0  0
    0.3672   -0.4386    6.7541 C   0  0  1  0  0  0  0  0  0  0  0  0
    0.0901    0.0460    8.0324 O   0  0  0  0  0  0  0  0  0  0  0  0
   -0.5376   -0.9729    8.7241 C   0  0  2  0  0  0  0  0  0  0  0  0
   -1.1516   -1.8988    7.7487 C   0  0  1  0  0  0  0  0  0  0  0  0
   -0.9233   -1.1570    6.4248 C   0  0  2  0  0  0  0  0  0  0  0  0
   -0.7711   -2.0541    5.3777 O   0  0  0  0  0  0  0  0  0  0  0  0
   -0.4012   -3.0804    7.6473 O   0  0  0  0  0  0  0  0  0  0  0  0
   -1.4313   -0.4502    9.7172 N   0  0  0  0  0  0  0  0  0  0  0  0
   -1.7406    0.8650    9.7869 C   0  0  0  0  0  0  0  0  0  0  0  0
   -2.5908    1.0315   10.8117 N   0  0  0  0  0  0  0  0  0  0  0  0
   -2.8149   -0.1556   11.3792 C   0  0  0  0  0  0  0  0  0  0  0  0
   -2.0867   -1.1048   10.6964 C   0  0  0  0  0  0  0  0  0  0  0  0
   -2.1174   -2.4010   11.0480 N   0  0  0  0  0  0  0  0  0  0  0  0
   -2.8849   -2.7815   12.1015 C   0  0  0  0  0  0  0  0  0  0  0  0
   -3.5990   -1.8689   12.7755 N   0  0  0  0  0  0  0  0  0  0  0  0
   -3.5860   -0.5774   12.4471 C   0  0  0  0  0  0  0  0  0  0  0  0
   -4.3382    0.4016   13.1528 N   0  0  0  0  0  0  0  0  0  0  0  0
  1  2  1  0
  3  2  1  6
  3  4  1  0
  4  5  1  0
  5  6  1  0
  6  7  1  0
  7  8  1  6
  6  9  1  6
  5 10  1  1
 10 11  1  0
 11 12  2  0
 12 13  1  0
 13 14  2  0
 14 15  1  0
 15 16  2  0
 16 17  1  0
 17 18  2  0
 18 19  1  0
  7  3  1  0
 14 10  1  0
 18 13  1  0
M  END
$$$$
