
     RDKit          3D

 19 21  0  0  0  0  0  0  0  0999 V2000
   -0.1421    1.7940    5.9339 O   0  0  0  0  0  0  0  0  0  0  0  0
    0.6677    0.6953    5.6874 C   0  0  0  0  0  0  0  0  0  0  0  0
    0.3500   -0.4626    6.6007 C   0  0  1  0  0  0  0  0  0  0  0  0
    0.0638   -0.0173    7.8912 O   0  0  0  0  0  0  0  0  0  0  0  0
   -0.6193   -1.0359    8.5285 C   0  0  2  0  0  0  0  0  0  0  0  0
   -1.2477   -1.8974    7.5045 C   0  0  1  0  0  0  0  0  0  0  0  0
   -0.9604   -1.1146    6.2162 C   0  0  2  0  0  0  0  0  0  0  0  0
   -0.8206   -1.9756    5.1377 O   0  0  0  0  0  0  0  0  0  0  0  0
   -0.5429   -3.1037    7.3718 O   0  0  0  0  0  0  0  0  0  0  0  0
   -1.5135   -0.5164    9.5229 N   0  0  0  0  0  0  0  0  0  0  0  0
   -1.8564    0.7914    9.5701 C   0  0  0  0  0  0  0  0  0  0  0  0
   -2.6974    0.9568   10.6027 N   0  0  0  0  0  0  0  0  0  0  0  0
   -2.8827   -0.2238   11.1971 C   0  0  0  0  0  0  0  0  0  0  0  0
   -2.1387   -1.1675   10.5239 C   0  0  0  0  0  0  0  0  0  0  0  0
   -2.1306   -2.4567   10.9021 N   0  0  0  0  0  0  0  0  0  0  0  0
   -2.8741   -2.8352   11.9733 C   0  0  0  0  0  0  0  0  0  0  0  0
   -3.6032   -1.9279   12.6383 N   0  0  0  0  0  0  0  0  0  0  0  0
   -3.6285   -0.6435   12.2836 C   0  0  0  0  0  0  0  0  0  0  0  0
   -4.3970    0.3299   12.9795 N   0  0  0  0  0  0  0  0  0  0  0  0
  1  2  1  0
  3  2  1  6
  3  4  1  0
  4  5  1  0
  5  6  1  0
  6  7  1  0
  7  8  1  6
  6  9  1  6
  5 10  1  1
 10 11  1  0
 11 12  2  0
 12 13  1  0
 13 14  2  0
 14 15  1  0
 15 16  2  0
 16 17  1  0
 17 18  2  0
 18 19  1  0
  7  3  1  0
 14 10  1  0
 18 13  1  0
M  END
$$$$
