
     RDKit          3D

 19 21  0  0  0  0  0  0  0  0999 V2000
    0.2688    1.9733    6.2313 O   0  0  0  0  0  0  0  0  0  0  0  0
    0.8044    0.7598    5.8262 C   0  0  0  0  0  0  0  0  0  0  0  0
    0.4956   -0.3517    6.7982 C   0  0  1  0  0  0  0  0  0  0  0  0
    0.1723    0.1591    8.0553 O   0  0  0  0  0  0  0  0  0  0  0  0
   -0.4993   -0.8384    8.7369 C   0  0  2  0  0  0  0  0  0  0  0  0
   -1.0857   -1.7722    7.7521 C   0  0  1  0  0  0  0  0  0  0  0  0
   -0.7907   -1.0571    6.4268 C   0  0  2  0  0  0  0  0  0  0  0  0
   -0.6082   -1.9745    5.4023 O   0  0  0  0  0  0  0  0  0  0  0  0
   -0.3498   -2.9661    7.7026 O   0  0  0  0  0  0  0  0  0  0  0  0
   -1.4259   -0.2855    9.6823 N   0  0  0  0  0  0  0  0  0  0  0  0
   -1.7586    1.0258    9.6821 C   0  0  0  0  0  0  0  0  0  0  0  0
   -2.6367    1.2253   10.6771 N   0  0  0  0  0  0  0  0  0  0  0  0
   -2.8550    0.0624   11.2948 C   0  0  0  0  0  0  0  0  0  0  0  0
   -2.0945   -0.9048   10.6754 C   0  0  0  0  0  0  0  0  0  0  0  0
   -2.1124   -2.1835   11.0873 N   0  0  0  0  0  0  0  0  0  0  0  0
   -2.8995   -2.5275   12.1389 C   0  0  0  0  0  0  0  0  0  0  0  0
   -3.6451   -1.5971   12.7515 N   0  0  0  0  0  0  0  0  0  0  0  0
   -3.6453   -0.3224   12.3626 C   0  0  0  0  0  0  0  0  0  0  0  0
   -4.4310    0.6752   13.0028 N   0  0  0  0  0  0  0  0  0  0  0  0
  1  2  1  0
  3  2  1  6
  3  4  1  0
  4  5  1  0
  5  6  1  0
  6  7  1  0
  7  8  1  6
  6  9  1  6
  5 10  1  6
 10 11  1  0
 11 12  2  0
 12 13  1  0
 13 14  2  0
 14 15  1  0
 15 16  2  0
 16 17  1  0
 17 18  2  0
 18 19  1  0
  7  3  1  0
 14 10  1  0
 18 13  1  0
M  END
$$$$
