
     RDKit          3D

 19 21  0  0  0  0  0  0  0  0999 V2000
   -1.7498    1.9212    5.7304 O   0  0  0  0  0  0  0  0  0  0  0  0
   -0.4559    1.4651    5.5263 C   0  0  0  0  0  0  0  0  0  0  0  0
   -0.1176    0.2950    6.4163 C   0  0  1  0  0  0  0  0  0  0  0  0
   -0.5908    0.4996    7.7123 O   0  0  0  0  0  0  0  0  0  0  0  0
   -0.6375   -0.7380    8.3261 C   0  0  2  0  0  0  0  0  0  0  0  0
   -0.7247   -1.7811    7.2820 C   0  0  1  0  0  0  0  0  0  0  0  0
   -0.8937   -0.9391    6.0102 C   0  0  2  0  0  0  0  0  0  0  0  0
   -0.3268   -1.5785    4.9175 O   0  0  0  0  0  0  0  0  0  0  0  0
    0.5070   -2.4370    7.1331 O   0  0  0  0  0  0  0  0  0  0  0  0
   -1.6684   -0.7828    9.3228 N   0  0  0  0  0  0  0  0  0  0  0  0
   -2.6362   -1.7282    9.3157 C   0  0  0  0  0  0  0  0  0  0  0  0
   -3.4389   -1.4998   10.3666 N   0  0  0  0  0  0  0  0  0  0  0  0
   -2.9874   -0.4305   11.0256 C   0  0  0  0  0  0  0  0  0  0  0  0
   -1.8655    0.0350   10.3759 C   0  0  0  0  0  0  0  0  0  0  0  0
   -1.1930    1.1108   10.8180 N   0  0  0  0  0  0  0  0  0  0  0  0
   -1.6318    1.7521   11.9314 C   0  0  0  0  0  0  0  0  0  0  0  0
   -2.7221    1.3106   12.5742 N   0  0  0  0  0  0  0  0  0  0  0  0
   -3.4068    0.2463   12.1565 C   0  0  0  0  0  0  0  0  0  0  0  0
   -4.5649   -0.2333   12.8281 N   0  0  0  0  0  0  0  0  0  0  0  0
  1  2  1  0
  3  2  1  6
  3  4  1  0
  4  5  1  0
  5  6  1  0
  6  7  1  0
  7  8  1  6
  6  9  1  6
  5 10  1  1
 10 11  1  0
 11 12  2  0
 12 13  1  0
 13 14  2  0
 14 15  1  0
 15 16  2  0
 16 17  1  0
 17 18  2  0
 18 19  1  0
  7  3  1  0
 14 10  1  0
 18 13  1  0
M  END
$$$$
