
     RDKit          3D

 29 31  0  0  0  0  0  0  0  0999 V2000
   -2.2776    1.6814   12.1824 C   0  0  0  0  0  0  0  0  0  0  0  0
   -1.3273    0.8766   13.0038 C   0  0  0  0  0  0  0  0  0  0  0  0
   -0.5415    1.4249   13.9873 C   0  0  0  0  0  0  0  0  0  0  0  0
    0.1767    0.4112   14.5682 C   0  0  0  0  0  0  0  0  0  0  0  0
   -0.2020   -0.7377   13.9065 C   0  0  0  0  0  0  0  0  0  0  0  0
   -1.1100   -0.4837   12.9542 N   0  0  0  0  0  0  0  0  0  0  0  0
   -1.8236   -1.3515   12.0298 C   0  0  0  0  0  0  0  0  0  0  0  0
   -1.0086   -2.2268   11.2052 C   0  0  0  0  0  0  0  0  0  0  0  0
   -1.4713   -3.4775   10.8163 C   0  0  0  0  0  0  0  0  0  0  0  0
   -0.5835   -4.3043   10.1126 C   0  0  0  0  0  0  0  0  0  0  0  0
    0.6998   -3.9401    9.7922 C   0  0  0  0  0  0  0  0  0  0  0  0
    1.1499   -2.7014   10.1754 C   0  0  0  0  0  0  0  0  0  0  0  0
    0.2901   -1.8700   10.8724 C   0  0  0  0  0  0  0  0  0  0  0  0
    1.7701   -5.0227    8.9025 S   0  0  0  0  0  6  0  0  0  0  0  0
    2.5153   -4.2021    7.8886 O   0  0  0  0  0  0  0  0  0  0  0  0
    0.9702   -6.0590    8.1635 O   0  0  0  0  0  0  0  0  0  0  0  0
    2.8961   -5.7654   10.0401 C   0  0  0  0  0  0  0  0  0  0  0  0
   -2.8386   -3.9632   10.9853 C   0  0  0  0  0  0  0  0  0  0  0  0
   -3.3638   -3.5688   12.2262 F   0  0  0  0  0  0  0  0  0  0  0  0
   -3.1346   -5.2396   10.7596 F   0  0  0  0  0  0  0  0  0  0  0  0
   -3.6611   -3.2307   10.0823 F   0  0  0  0  0  0  0  0  0  0  0  0
    0.3913   -1.8531   14.3368 N   0  0  0  0  0  0  0  0  0  0  0  0
    1.2892   -1.9529   15.3170 C   0  0  0  0  0  0  0  0  0  0  0  0
    1.6914   -0.8028   16.0028 C   0  0  0  0  0  0  0  0  0  0  0  0
    1.1154    0.3776   15.6061 C   0  0  0  0  0  0  0  0  0  0  0  0
   -0.4413    2.8438   14.4076 C   0  0  0  0  0  0  0  0  0  0  0  0
    0.5251    3.6006   13.5460 C   0  0  0  0  0  0  0  0  0  0  0  0
    0.8828    3.2259   12.4198 O   0  0  0  0  0  0  0  0  0  0  0  0
    1.0208    4.7685   14.0629 O   0  0  0  0  0  0  0  0  0  0  0  0
  1  2  1  0
  2  3  2  0
  3  4  1  0
  4  5  2  0
  5  6  1  0
  6  7  1  0
  7  8  1  0
  8  9  2  0
  9 10  1  0
 10 11  2  0
 11 12  1  0
 12 13  2  0
 11 14  1  0
 14 15  2  0
 14 16  2  0
 14 17  1  0
  9 18  1  0
 18 19  1  0
 18 20  1  0
 18 21  1  0
  5 22  1  0
 22 23  2  0
 23 24  1  0
 24 25  2  0
  3 26  1  0
 26 27  1  0
 27 28  2  0
 27 29  1  0
  6  2  1  0
 25  4  1  0
 13  8  1  0
M  END
$$$$
