
     RDKit          3D

 29 31  0  0  0  0  0  0  0  0999 V2000
    1.1679    0.3533   12.2611 C   0  0  0  0  0  0  0  0  0  0  0  0
   -0.2642    0.0773   12.5749 C   0  0  0  0  0  0  0  0  0  0  0  0
   -0.8151    0.3075   13.8114 C   0  0  0  0  0  0  0  0  0  0  0  0
   -2.1472   -0.0122   13.7464 C   0  0  0  0  0  0  0  0  0  0  0  0
   -2.3644   -0.4340   12.4517 C   0  0  0  0  0  0  0  0  0  0  0  0
   -1.2410   -0.3909   11.7222 N   0  0  0  0  0  0  0  0  0  0  0  0
   -0.9718   -0.6977   10.3258 C   0  0  0  0  0  0  0  0  0  0  0  0
   -0.3392   -1.9772   10.0556 C   0  0  0  0  0  0  0  0  0  0  0  0
   -1.0831   -3.1498   10.0239 C   0  0  0  0  0  0  0  0  0  0  0  0
   -0.3830   -4.3545    9.8638 C   0  0  0  0  0  0  0  0  0  0  0  0
    0.9809   -4.4277    9.7356 C   0  0  0  0  0  0  0  0  0  0  0  0
    1.7102   -3.2654    9.7633 C   0  0  0  0  0  0  0  0  0  0  0  0
    1.0389   -2.0652    9.9220 C   0  0  0  0  0  0  0  0  0  0  0  0
    1.8060   -5.9731    9.5342 S   0  0  0  0  0  6  0  0  0  0  0  0
    1.4012   -6.5407    8.2035 O   0  0  0  0  0  0  0  0  0  0  0  0
    1.3749   -6.9398   10.6017 O   0  0  0  0  0  0  0  0  0  0  0  0
    3.5477   -5.6943    9.5797 C   0  0  0  0  0  0  0  0  0  0  0  0
   -2.5418   -3.2263   10.0367 C   0  0  0  0  0  0  0  0  0  0  0  0
   -3.1056   -2.2379    9.2143 F   0  0  0  0  0  0  0  0  0  0  0  0
   -3.2051   -3.2824   11.1877 F   0  0  0  0  0  0  0  0  0  0  0  0
   -2.9079   -4.4157    9.3440 F   0  0  0  0  0  0  0  0  0  0  0  0
   -3.6223   -0.7894   12.1822 N   0  0  0  0  0  0  0  0  0  0  0  0
   -4.6544   -0.7745   13.0256 C   0  0  0  0  0  0  0  0  0  0  0  0
   -4.4607   -0.3527   14.3445 C   0  0  0  0  0  0  0  0  0  0  0  0
   -3.1865    0.0269   14.6833 C   0  0  0  0  0  0  0  0  0  0  0  0
   -0.1547    0.8167   15.0379 C   0  0  0  0  0  0  0  0  0  0  0  0
    0.1664   -0.2988   15.9874 C   0  0  0  0  0  0  0  0  0  0  0  0
   -0.4992   -1.3408   16.0757 O   0  0  0  0  0  0  0  0  0  0  0  0
    1.2647   -0.1243   16.7874 O   0  0  0  0  0  0  0  0  0  0  0  0
  1  2  1  0
  2  3  2  0
  3  4  1  0
  4  5  2  0
  5  6  1  0
  6  7  1  0
  7  8  1  0
  8  9  2  0
  9 10  1  0
 10 11  2  0
 11 12  1  0
 12 13  2  0
 11 14  1  0
 14 15  2  0
 14 16  2  0
 14 17  1  0
  9 18  1  0
 18 19  1  0
 18 20  1  0
 18 21  1  0
  5 22  1  0
 22 23  2  0
 23 24  1  0
 24 25  2  0
  3 26  1  0
 26 27  1  0
 27 28  2  0
 27 29  1  0
  6  2  1  0
 25  4  1  0
 13  8  1  0
M  END
$$$$
