
     RDKit          3D

 29 31  0  0  0  0  0  0  0  0999 V2000
   -2.1609    0.1436   15.1642 C   0  0  0  0  0  0  0  0  0  0  0  0
   -1.8166    1.1180   14.0884 C   0  0  0  0  0  0  0  0  0  0  0  0
   -1.2042    2.3211   14.3392 C   0  0  0  0  0  0  0  0  0  0  0  0
   -0.9967    2.9481   13.1371 C   0  0  0  0  0  0  0  0  0  0  0  0
   -1.4994    2.0915   12.1807 C   0  0  0  0  0  0  0  0  0  0  0  0
   -2.0026    0.9773   12.7297 N   0  0  0  0  0  0  0  0  0  0  0  0
   -2.6021   -0.2131   12.1465 C   0  0  0  0  0  0  0  0  0  0  0  0
   -1.6834   -1.2094   11.6234 C   0  0  0  0  0  0  0  0  0  0  0  0
   -2.0693   -2.5371   11.4896 C   0  0  0  0  0  0  0  0  0  0  0  0
   -1.0918   -3.4554   11.0793 C   0  0  0  0  0  0  0  0  0  0  0  0
    0.2069   -3.1086   10.8048 C   0  0  0  0  0  0  0  0  0  0  0  0
    0.5811   -1.7946   10.9346 C   0  0  0  0  0  0  0  0  0  0  0  0
   -0.3679   -0.8719   11.3399 C   0  0  0  0  0  0  0  0  0  0  0  0
    1.3919   -4.3086   10.2897 S   0  0  0  0  0  6  0  0  0  0  0  0
    1.9066   -3.8969    8.9397 O   0  0  0  0  0  0  0  0  0  0  0  0
    0.7436   -5.6573   10.1478 O   0  0  0  0  0  0  0  0  0  0  0  0
    2.7078   -4.3443   11.4648 C   0  0  0  0  0  0  0  0  0  0  0  0
   -3.4326   -3.0404   11.6375 C   0  0  0  0  0  0  0  0  0  0  0  0
   -3.4558   -4.4441   11.6255 F   0  0  0  0  0  0  0  0  0  0  0  0
   -4.4129   -2.5702   10.8722 F   0  0  0  0  0  0  0  0  0  0  0  0
   -3.8430   -2.7604   12.9724 F   0  0  0  0  0  0  0  0  0  0  0  0
   -1.3846    2.5259   10.9240 N   0  0  0  0  0  0  0  0  0  0  0  0
   -0.8456    3.6774   10.5233 C   0  0  0  0  0  0  0  0  0  0  0  0
   -0.3302    4.5645   11.4732 C   0  0  0  0  0  0  0  0  0  0  0  0
   -0.4184    4.1733   12.7853 C   0  0  0  0  0  0  0  0  0  0  0  0
   -0.8017    2.8998   15.6441 C   0  0  0  0  0  0  0  0  0  0  0  0
    0.6829    2.8204   15.8410 C   0  0  0  0  0  0  0  0  0  0  0  0
    1.4798    3.6711   15.4192 O   0  0  0  0  0  0  0  0  0  0  0  0
    1.1513    1.7337   16.5312 O   0  0  0  0  0  0  0  0  0  0  0  0
  1  2  1  0
  2  3  2  0
  3  4  1  0
  4  5  2  0
  5  6  1  0
  6  7  1  0
  7  8  1  0
  8  9  2  0
  9 10  1  0
 10 11  2  0
 11 12  1  0
 12 13  2  0
 11 14  1  0
 14 15  2  0
 14 16  2  0
 14 17  1  0
  9 18  1  0
 18 19  1  0
 18 20  1  0
 18 21  1  0
  5 22  1  0
 22 23  2  0
 23 24  1  0
 24 25  2  0
  3 26  1  0
 26 27  1  0
 27 28  2  0
 27 29  1  0
  6  2  1  0
 25  4  1  0
 13  8  1  0
M  END
$$$$
