
     RDKit          3D

 29 31  0  0  0  0  0  0  0  0999 V2000
    1.1043   -0.0754   12.5703 C   0  0  0  0  0  0  0  0  0  0  0  0
   -0.1532   -0.7613   12.1537 C   0  0  0  0  0  0  0  0  0  0  0  0
   -1.3247   -0.6682   12.8640 C   0  0  0  0  0  0  0  0  0  0  0  0
   -2.2850   -1.3780   12.1895 C   0  0  0  0  0  0  0  0  0  0  0  0
   -1.6544   -1.8880   11.0744 C   0  0  0  0  0  0  0  0  0  0  0  0
   -0.3634   -1.5309   11.0294 N   0  0  0  0  0  0  0  0  0  0  0  0
    0.6868   -1.7875   10.0558 C   0  0  0  0  0  0  0  0  0  0  0  0
    1.1145   -3.1687    9.9155 C   0  0  0  0  0  0  0  0  0  0  0  0
    1.8627   -3.5773    8.8188 C   0  0  0  0  0  0  0  0  0  0  0  0
    2.1437   -4.9464    8.7028 C   0  0  0  0  0  0  0  0  0  0  0  0
    1.7236   -5.8863    9.6095 C   0  0  0  0  0  0  0  0  0  0  0  0
    0.9884   -5.4761   10.6934 C   0  0  0  0  0  0  0  0  0  0  0  0
    0.6984   -4.1290   10.8263 C   0  0  0  0  0  0  0  0  0  0  0  0
    2.1104   -7.5953    9.4115 S   0  0  0  0  0  6  0  0  0  0  0  0
    3.2948   -7.9028   10.2829 O   0  0  0  0  0  0  0  0  0  0  0  0
    2.4947   -7.8836    7.9871 O   0  0  0  0  0  0  0  0  0  0  0  0
    0.7146   -8.5525    9.9108 C   0  0  0  0  0  0  0  0  0  0  0  0
    2.4718   -2.6885    7.8324 C   0  0  0  0  0  0  0  0  0  0  0  0
    2.4950   -3.2859    6.5621 F   0  0  0  0  0  0  0  0  0  0  0  0
    3.6443   -2.1110    8.0766 F   0  0  0  0  0  0  0  0  0  0  0  0
    1.5675   -1.6084    7.6225 F   0  0  0  0  0  0  0  0  0  0  0  0
   -2.4350   -2.6160   10.2734 N   0  0  0  0  0  0  0  0  0  0  0  0
   -3.7284   -2.8865   10.4494 C   0  0  0  0  0  0  0  0  0  0  0  0
   -4.3912   -2.3827   11.5727 C   0  0  0  0  0  0  0  0  0  0  0  0
   -3.6408   -1.6245   12.4355 C   0  0  0  0  0  0  0  0  0  0  0  0
   -1.5825    0.0570   14.1318 C   0  0  0  0  0  0  0  0  0  0  0  0
   -1.9826    1.4793   13.8746 C   0  0  0  0  0  0  0  0  0  0  0  0
   -2.4123    1.8874   12.7859 O   0  0  0  0  0  0  0  0  0  0  0  0
   -1.8540    2.3503   14.9241 O   0  0  0  0  0  0  0  0  0  0  0  0
  1  2  1  0
  2  3  2  0
  3  4  1  0
  4  5  2  0
  5  6  1  0
  6  7  1  0
  7  8  1  0
  8  9  2  0
  9 10  1  0
 10 11  2  0
 11 12  1  0
 12 13  2  0
 11 14  1  0
 14 15  2  0
 14 16  2  0
 14 17  1  0
  9 18  1  0
 18 19  1  0
 18 20  1  0
 18 21  1  0
  5 22  1  0
 22 23  2  0
 23 24  1  0
 24 25  2  0
  3 26  1  0
 26 27  1  0
 27 28  2  0
 27 29  1  0
  6  2  1  0
 25  4  1  0
 13  8  1  0
M  END
$$$$
