
     RDKit          3D

 29 31  0  0  0  0  0  0  0  0999 V2000
   -3.2665   -1.8306   12.0622 C   0  0  0  0  0  0  0  0  0  0  0  0
   -1.9742   -1.5024   12.7313 C   0  0  0  0  0  0  0  0  0  0  0  0
   -1.7608   -0.3255   13.4058 C   0  0  0  0  0  0  0  0  0  0  0  0
   -0.4942   -0.3630   13.9303 C   0  0  0  0  0  0  0  0  0  0  0  0
    0.0287   -1.5808   13.5497 C   0  0  0  0  0  0  0  0  0  0  0  0
   -0.8459   -2.2892   12.8221 N   0  0  0  0  0  0  0  0  0  0  0  0
   -0.7748   -3.6170   12.2318 C   0  0  0  0  0  0  0  0  0  0  0  0
    0.0434   -3.7510   11.0390 C   0  0  0  0  0  0  0  0  0  0  0  0
    0.2151   -4.9851   10.4250 C   0  0  0  0  0  0  0  0  0  0  0  0
    1.1053   -5.0497    9.3431 C   0  0  0  0  0  0  0  0  0  0  0  0
    1.8011   -3.9671    8.8678 C   0  0  0  0  0  0  0  0  0  0  0  0
    1.6241   -2.7495    9.4758 C   0  0  0  0  0  0  0  0  0  0  0  0
    0.7510   -2.6639   10.5467 C   0  0  0  0  0  0  0  0  0  0  0  0
    2.9058   -4.1096    7.5007 S   0  0  0  0  0  6  0  0  0  0  0  0
    2.7464   -5.4867    6.9220 O   0  0  0  0  0  0  0  0  0  0  0  0
    4.3294   -3.9611    7.9602 O   0  0  0  0  0  0  0  0  0  0  0  0
    2.4825   -2.8859    6.3019 C   0  0  0  0  0  0  0  0  0  0  0  0
   -0.5328   -6.1989   10.7429 C   0  0  0  0  0  0  0  0  0  0  0  0
   -1.8292   -6.1472   10.2064 F   0  0  0  0  0  0  0  0  0  0  0  0
   -0.5830   -6.6538   11.9912 F   0  0  0  0  0  0  0  0  0  0  0  0
    0.0451   -7.2601    9.9888 F   0  0  0  0  0  0  0  0  0  0  0  0
    1.2722   -1.8137   13.9745 N   0  0  0  0  0  0  0  0  0  0  0  0
    2.0304   -1.0002   14.7095 C   0  0  0  0  0  0  0  0  0  0  0  0
    1.5246    0.2411   15.1073 C   0  0  0  0  0  0  0  0  0  0  0  0
    0.2483    0.5390   14.7014 C   0  0  0  0  0  0  0  0  0  0  0  0
   -2.6871    0.8190   13.5848 C   0  0  0  0  0  0  0  0  0  0  0  0
   -2.1694    2.0509   12.9039 C   0  0  0  0  0  0  0  0  0  0  0  0
   -0.9649    2.2865   12.7296 O   0  0  0  0  0  0  0  0  0  0  0  0
   -3.1078    2.9453   12.4609 O   0  0  0  0  0  0  0  0  0  0  0  0
  1  2  1  0
  2  3  2  0
  3  4  1  0
  4  5  2  0
  5  6  1  0
  6  7  1  0
  7  8  1  0
  8  9  2  0
  9 10  1  0
 10 11  2  0
 11 12  1  0
 12 13  2  0
 11 14  1  0
 14 15  2  0
 14 16  2  0
 14 17  1  0
  9 18  1  0
 18 19  1  0
 18 20  1  0
 18 21  1  0
  5 22  1  0
 22 23  2  0
 23 24  1  0
 24 25  2  0
  3 26  1  0
 26 27  1  0
 27 28  2  0
 27 29  1  0
  6  2  1  0
 25  4  1  0
 13  8  1  0
M  END
$$$$
