
     RDKit          3D

 29 31  0  0  0  0  0  0  0  0999 V2000
   -3.0372   -2.3279   11.8828 C   0  0  0  0  0  0  0  0  0  0  0  0
   -1.8867   -1.4790   12.3087 C   0  0  0  0  0  0  0  0  0  0  0  0
   -2.0263   -0.1643   12.6797 C   0  0  0  0  0  0  0  0  0  0  0  0
   -0.7911    0.3038   13.0486 C   0  0  0  0  0  0  0  0  0  0  0  0
    0.0720   -0.7591   12.8854 C   0  0  0  0  0  0  0  0  0  0  0  0
   -0.5652   -1.8496   12.4374 N   0  0  0  0  0  0  0  0  0  0  0  0
   -0.1047   -3.1990   12.1478 C   0  0  0  0  0  0  0  0  0  0  0  0
    0.5037   -3.4086   10.8454 C   0  0  0  0  0  0  0  0  0  0  0  0
    1.0447   -4.6403   10.4992 C   0  0  0  0  0  0  0  0  0  0  0  0
    1.7087   -4.7305    9.2671 C   0  0  0  0  0  0  0  0  0  0  0  0
    1.8440   -3.6764    8.3995 C   0  0  0  0  0  0  0  0  0  0  0  0
    1.3037   -2.4630    8.7452 C   0  0  0  0  0  0  0  0  0  0  0  0
    0.6453   -2.3518    9.9578 C   0  0  0  0  0  0  0  0  0  0  0  0
    2.6885   -3.8513    6.8614 S   0  0  0  0  0  6  0  0  0  0  0  0
    1.6775   -4.2507    5.8245 O   0  0  0  0  0  0  0  0  0  0  0  0
    3.7181   -4.9429    6.9506 O   0  0  0  0  0  0  0  0  0  0  0  0
    3.4227   -2.3031    6.4402 C   0  0  0  0  0  0  0  0  0  0  0  0
    0.8888   -5.8766   11.2615 C   0  0  0  0  0  0  0  0  0  0  0  0
   -0.4616   -6.2527   11.3410 F   0  0  0  0  0  0  0  0  0  0  0  0
    1.4618   -6.0119   12.4536 F   0  0  0  0  0  0  0  0  0  0  0  0
    1.4317   -6.9303   10.4718 F   0  0  0  0  0  0  0  0  0  0  0  0
    1.3426   -0.5025   13.2031 N   0  0  0  0  0  0  0  0  0  0  0  0
    1.8366    0.6525   13.6489 C   0  0  0  0  0  0  0  0  0  0  0  0
    0.9830    1.7463   13.8216 C   0  0  0  0  0  0  0  0  0  0  0  0
   -0.3383    1.5447   13.5118 C   0  0  0  0  0  0  0  0  0  0  0  0
   -3.2574    0.6623   12.7107 C   0  0  0  0  0  0  0  0  0  0  0  0
   -3.7384    0.8714   14.1157 C   0  0  0  0  0  0  0  0  0  0  0  0
   -3.3033    0.2448   15.0927 O   0  0  0  0  0  0  0  0  0  0  0  0
   -4.7140    1.8165   14.2941 O   0  0  0  0  0  0  0  0  0  0  0  0
  1  2  1  0
  2  3  2  0
  3  4  1  0
  4  5  2  0
  5  6  1  0
  6  7  1  0
  7  8  1  0
  8  9  2  0
  9 10  1  0
 10 11  2  0
 11 12  1  0
 12 13  2  0
 11 14  1  0
 14 15  2  0
 14 16  2  0
 14 17  1  0
  9 18  1  0
 18 19  1  0
 18 20  1  0
 18 21  1  0
  5 22  1  0
 22 23  2  0
 23 24  1  0
 24 25  2  0
  3 26  1  0
 26 27  1  0
 27 28  2  0
 27 29  1  0
  6  2  1  0
 25  4  1  0
 13  8  1  0
M  END
$$$$
