
     RDKit          3D

 29 31  0  0  0  0  0  0  0  0999 V2000
    1.2626   -1.3568   13.5909 C   0  0  0  0  0  0  0  0  0  0  0  0
    0.2815   -1.1552   12.4853 C   0  0  0  0  0  0  0  0  0  0  0  0
   -0.9441   -0.5652   12.6734 C   0  0  0  0  0  0  0  0  0  0  0  0
   -1.5724   -0.4996   11.4561 C   0  0  0  0  0  0  0  0  0  0  0  0
   -0.6938   -1.0623   10.5546 C   0  0  0  0  0  0  0  0  0  0  0  0
    0.4351   -1.4685   11.1517 N   0  0  0  0  0  0  0  0  0  0  0  0
    1.6491   -2.0789   10.6316 C   0  0  0  0  0  0  0  0  0  0  0  0
    1.5264   -3.4372   10.1315 C   0  0  0  0  0  0  0  0  0  0  0  0
    2.2845   -3.8726    9.0519 C   0  0  0  0  0  0  0  0  0  0  0  0
    2.0299   -5.1619    8.5623 C   0  0  0  0  0  0  0  0  0  0  0  0
    1.0840   -6.0018    9.0934 C   0  0  0  0  0  0  0  0  0  0  0  0
    0.3411   -5.5678   10.1627 C   0  0  0  0  0  0  0  0  0  0  0  0
    0.5753   -4.2975   10.6607 C   0  0  0  0  0  0  0  0  0  0  0  0
    0.8105   -7.6149    8.4358 S   0  0  0  0  0  6  0  0  0  0  0  0
    1.7408   -8.5621    9.1388 O   0  0  0  0  0  0  0  0  0  0  0  0
    1.1386   -7.6450    6.9691 O   0  0  0  0  0  0  0  0  0  0  0  0
   -0.8687   -8.0690    8.7320 C   0  0  0  0  0  0  0  0  0  0  0  0
    3.3973   -3.1418    8.4508 C   0  0  0  0  0  0  0  0  0  0  0  0
    4.3860   -2.8547    9.4054 F   0  0  0  0  0  0  0  0  0  0  0  0
    3.1730   -2.0665    7.7016 F   0  0  0  0  0  0  0  0  0  0  0  0
    4.0839   -4.0491    7.5940 F   0  0  0  0  0  0  0  0  0  0  0  0
   -1.1262   -1.0872    9.2923 N   0  0  0  0  0  0  0  0  0  0  0  0
   -2.2944   -0.6323    8.8392 C   0  0  0  0  0  0  0  0  0  0  0  0
   -3.2039   -0.0586    9.7328 C   0  0  0  0  0  0  0  0  0  0  0  0
   -2.8159   -0.0033   11.0477 C   0  0  0  0  0  0  0  0  0  0  0  0
   -1.5430   -0.0578   13.9318 C   0  0  0  0  0  0  0  0  0  0  0  0
   -2.6543   -0.9473   14.4040 C   0  0  0  0  0  0  0  0  0  0  0  0
   -3.0137   -1.9742   13.8101 O   0  0  0  0  0  0  0  0  0  0  0  0
   -3.2862   -0.5751   15.5611 O   0  0  0  0  0  0  0  0  0  0  0  0
  1  2  1  0
  2  3  2  0
  3  4  1  0
  4  5  2  0
  5  6  1  0
  6  7  1  0
  7  8  1  0
  8  9  2  0
  9 10  1  0
 10 11  2  0
 11 12  1  0
 12 13  2  0
 11 14  1  0
 14 15  2  0
 14 16  2  0
 14 17  1  0
  9 18  1  0
 18 19  1  0
 18 20  1  0
 18 21  1  0
  5 22  1  0
 22 23  2  0
 23 24  1  0
 24 25  2  0
  3 26  1  0
 26 27  1  0
 27 28  2  0
 27 29  1  0
  6  2  1  0
 25  4  1  0
 13  8  1  0
M  END
$$$$
