
     RDKit          3D

 29 31  0  0  0  0  0  0  0  0999 V2000
   -3.1727   -2.0815   11.2706 C   0  0  0  0  0  0  0  0  0  0  0  0
   -1.9143   -1.5601   11.8790 C   0  0  0  0  0  0  0  0  0  0  0  0
   -1.8149   -0.3057   12.4285 C   0  0  0  0  0  0  0  0  0  0  0  0
   -0.5463   -0.1637   12.9300 C   0  0  0  0  0  0  0  0  0  0  0  0
    0.0935   -1.3555   12.6629 C   0  0  0  0  0  0  0  0  0  0  0  0
   -0.7116   -2.2174   12.0264 N   0  0  0  0  0  0  0  0  0  0  0  0
   -0.5119   -3.5844   11.5702 C   0  0  0  0  0  0  0  0  0  0  0  0
    0.4222   -3.7697   10.4733 C   0  0  0  0  0  0  0  0  0  0  0  0
    0.9061   -5.0316   10.1520 C   0  0  0  0  0  0  0  0  0  0  0  0
    1.8853   -5.1121    9.1513 C   0  0  0  0  0  0  0  0  0  0  0  0
    2.3778   -4.0202    8.4825 C   0  0  0  0  0  0  0  0  0  0  0  0
    1.8927   -2.7765    8.8011 C   0  0  0  0  0  0  0  0  0  0  0  0
    0.9267   -2.6744    9.7874 C   0  0  0  0  0  0  0  0  0  0  0  0
    3.6084   -4.1843    7.2302 S   0  0  0  0  0  6  0  0  0  0  0  0
    3.0851   -5.1367    6.1930 O   0  0  0  0  0  0  0  0  0  0  0  0
    4.8667   -4.7711    7.8065 O   0  0  0  0  0  0  0  0  0  0  0  0
    3.9031   -2.5981    6.5158 C   0  0  0  0  0  0  0  0  0  0  0  0
    0.4052   -6.2923   10.6938 C   0  0  0  0  0  0  0  0  0  0  0  0
   -0.9576   -6.4608   10.4008 F   0  0  0  0  0  0  0  0  0  0  0  0
    0.6342   -6.6211   11.9616 F   0  0  0  0  0  0  0  0  0  0  0  0
    0.9921   -7.3421    9.9308 F   0  0  0  0  0  0  0  0  0  0  0  0
    1.3579   -1.4192   13.0852 N   0  0  0  0  0  0  0  0  0  0  0  0
    2.0365   -0.4641   13.7209 C   0  0  0  0  0  0  0  0  0  0  0  0
    1.4115    0.7545   14.0024 C   0  0  0  0  0  0  0  0  0  0  0  0
    0.1081    0.8812   13.5931 C   0  0  0  0  0  0  0  0  0  0  0  0
   -2.8503    0.7531   12.5101 C   0  0  0  0  0  0  0  0  0  0  0  0
   -3.7049    0.5869   13.7313 C   0  0  0  0  0  0  0  0  0  0  0  0
   -3.5000   -0.2697   14.6035 O   0  0  0  0  0  0  0  0  0  0  0  0
   -4.7630    1.4477   13.8593 O   0  0  0  0  0  0  0  0  0  0  0  0
  1  2  1  0
  2  3  2  0
  3  4  1  0
  4  5  2  0
  5  6  1  0
  6  7  1  0
  7  8  1  0
  8  9  2  0
  9 10  1  0
 10 11  2  0
 11 12  1  0
 12 13  2  0
 11 14  1  0
 14 15  2  0
 14 16  2  0
 14 17  1  0
  9 18  1  0
 18 19  1  0
 18 20  1  0
 18 21  1  0
  5 22  1  0
 22 23  2  0
 23 24  1  0
 24 25  2  0
  3 26  1  0
 26 27  1  0
 27 28  2  0
 27 29  1  0
  6  2  1  0
 25  4  1  0
 13  8  1  0
M  END
$$$$
