
     RDKit          3D

 29 31  0  0  0  0  0  0  0  0999 V2000
   -2.9356   -1.6825   10.6062 C   0  0  0  0  0  0  0  0  0  0  0  0
   -1.8475   -1.0149   11.3780 C   0  0  0  0  0  0  0  0  0  0  0  0
   -2.0438   -0.4625   12.6197 C   0  0  0  0  0  0  0  0  0  0  0  0
   -0.8404    0.0269   13.0593 C   0  0  0  0  0  0  0  0  0  0  0  0
    0.0614   -0.2479   12.0530 C   0  0  0  0  0  0  0  0  0  0  0  0
   -0.5225   -0.8766   11.0235 N   0  0  0  0  0  0  0  0  0  0  0  0
    0.0046   -1.3934    9.7698 C   0  0  0  0  0  0  0  0  0  0  0  0
    0.6021   -2.7166    9.8165 C   0  0  0  0  0  0  0  0  0  0  0  0
    1.2451   -3.2500    8.7067 C   0  0  0  0  0  0  0  0  0  0  0  0
    1.7004   -4.5734    8.7983 C   0  0  0  0  0  0  0  0  0  0  0  0
    1.5458   -5.3529    9.9167 C   0  0  0  0  0  0  0  0  0  0  0  0
    0.9136   -4.8189   11.0116 C   0  0  0  0  0  0  0  0  0  0  0  0
    0.4550   -3.5146   10.9418 C   0  0  0  0  0  0  0  0  0  0  0  0
    2.1422   -7.0113    9.9737 S   0  0  0  0  0  6  0  0  0  0  0  0
    3.2153   -7.1504    8.9316 O   0  0  0  0  0  0  0  0  0  0  0  0
    1.0398   -7.9760    9.6365 O   0  0  0  0  0  0  0  0  0  0  0  0
    2.8021   -7.3200   11.5808 C   0  0  0  0  0  0  0  0  0  0  0  0
    1.5816   -2.5149    7.4900 C   0  0  0  0  0  0  0  0  0  0  0  0
    1.4770   -3.3389    6.3581 F   0  0  0  0  0  0  0  0  0  0  0  0
    2.7000   -1.7994    7.4207 F   0  0  0  0  0  0  0  0  0  0  0  0
    0.5327   -1.5794    7.2589 F   0  0  0  0  0  0  0  0  0  0  0  0
    1.3113    0.1513   12.2968 N   0  0  0  0  0  0  0  0  0  0  0  0
    1.7520    0.7729   13.3906 C   0  0  0  0  0  0  0  0  0  0  0  0
    0.8578    1.0646   14.4250 C   0  0  0  0  0  0  0  0  0  0  0  0
   -0.4446    0.6778   14.2336 C   0  0  0  0  0  0  0  0  0  0  0  0
   -3.2974   -0.3811   13.4081 C   0  0  0  0  0  0  0  0  0  0  0  0
   -3.8425    1.0160   13.4227 C   0  0  0  0  0  0  0  0  0  0  0  0
   -3.1637    2.0170   13.6943 O   0  0  0  0  0  0  0  0  0  0  0  0
   -5.1693    1.1584   13.1126 O   0  0  0  0  0  0  0  0  0  0  0  0
  1  2  1  0
  2  3  2  0
  3  4  1  0
  4  5  2  0
  5  6  1  0
  6  7  1  0
  7  8  1  0
  8  9  2  0
  9 10  1  0
 10 11  2  0
 11 12  1  0
 12 13  2  0
 11 14  1  0
 14 15  2  0
 14 16  2  0
 14 17  1  0
  9 18  1  0
 18 19  1  0
 18 20  1  0
 18 21  1  0
  5 22  1  0
 22 23  2  0
 23 24  1  0
 24 25  2  0
  3 26  1  0
 26 27  1  0
 27 28  2  0
 27 29  1  0
  6  2  1  0
 25  4  1  0
 13  8  1  0
M  END
$$$$
