
     RDKit          3D

 29 31  0  0  0  0  0  0  0  0999 V2000
    0.2066    0.2034   10.0008 C   0  0  0  0  0  0  0  0  0  0  0  0
    0.5055   -0.0990   11.4307 C   0  0  0  0  0  0  0  0  0  0  0  0
    0.1486    0.7361   12.4606 C   0  0  0  0  0  0  0  0  0  0  0  0
    0.5334    0.1447   13.6366 C   0  0  0  0  0  0  0  0  0  0  0  0
    1.1221   -1.0489   13.2760 C   0  0  0  0  0  0  0  0  0  0  0  0
    1.1194   -1.2202   11.9468 N   0  0  0  0  0  0  0  0  0  0  0  0
    1.5849   -2.3096   11.1023 C   0  0  0  0  0  0  0  0  0  0  0  0
    0.7344   -3.4854   11.0369 C   0  0  0  0  0  0  0  0  0  0  0  0
    1.0586   -4.5572   10.2148 C   0  0  0  0  0  0  0  0  0  0  0  0
    0.1323   -5.6065   10.1265 C   0  0  0  0  0  0  0  0  0  0  0  0
   -1.0593   -5.6254   10.8062 C   0  0  0  0  0  0  0  0  0  0  0  0
   -1.3722   -4.5657   11.6202 C   0  0  0  0  0  0  0  0  0  0  0  0
   -0.4724   -3.5185   11.7206 C   0  0  0  0  0  0  0  0  0  0  0  0
   -2.1840   -6.9754   10.6570 S   0  0  0  0  0  6  0  0  0  0  0  0
   -1.8284   -7.9886   11.7075 O   0  0  0  0  0  0  0  0  0  0  0  0
   -2.0396   -7.6310    9.3120 O   0  0  0  0  0  0  0  0  0  0  0  0
   -3.8239   -6.3758   10.9111 C   0  0  0  0  0  0  0  0  0  0  0  0
    2.3298   -4.7333    9.5172 C   0  0  0  0  0  0  0  0  0  0  0  0
    2.1799   -5.5703    8.3999 F   0  0  0  0  0  0  0  0  0  0  0  0
    3.4265   -5.0738   10.1873 F   0  0  0  0  0  0  0  0  0  0  0  0
    2.6482   -3.4896    8.9003 F   0  0  0  0  0  0  0  0  0  0  0  0
    1.5643   -1.7861   14.2968 N   0  0  0  0  0  0  0  0  0  0  0  0
    1.4913   -1.4813   15.5925 C   0  0  0  0  0  0  0  0  0  0  0  0
    0.9006   -0.2763   15.9848 C   0  0  0  0  0  0  0  0  0  0  0  0
    0.4250    0.5266   14.9790 C   0  0  0  0  0  0  0  0  0  0  0  0
   -0.5382    2.0489   12.3913 C   0  0  0  0  0  0  0  0  0  0  0  0
    0.1660    3.0773   13.2254 C   0  0  0  0  0  0  0  0  0  0  0  0
    0.3649    2.9574   14.4430 O   0  0  0  0  0  0  0  0  0  0  0  0
    0.6019    4.2002   12.5729 O   0  0  0  0  0  0  0  0  0  0  0  0
  1  2  1  0
  2  3  2  0
  3  4  1  0
  4  5  2  0
  5  6  1  0
  6  7  1  0
  7  8  1  0
  8  9  2  0
  9 10  1  0
 10 11  2  0
 11 12  1  0
 12 13  2  0
 11 14  1  0
 14 15  2  0
 14 16  2  0
 14 17  1  0
  9 18  1  0
 18 19  1  0
 18 20  1  0
 18 21  1  0
  5 22  1  0
 22 23  2  0
 23 24  1  0
 24 25  2  0
  3 26  1  0
 26 27  1  0
 27 28  2  0
 27 29  1  0
  6  2  1  0
 25  4  1  0
 13  8  1  0
M  END
$$$$
