
     RDKit          3D

 29 31  0  0  0  0  0  0  0  0999 V2000
    0.4298   -2.7065   14.3629 C   0  0  0  0  0  0  0  0  0  0  0  0
   -0.0134   -1.4276   13.7355 C   0  0  0  0  0  0  0  0  0  0  0  0
    0.3940   -0.1956   14.1845 C   0  0  0  0  0  0  0  0  0  0  0  0
   -0.1604    0.7562   13.3673 C   0  0  0  0  0  0  0  0  0  0  0  0
   -0.8993    0.0592   12.4348 C   0  0  0  0  0  0  0  0  0  0  0  0
   -0.8284   -1.2639   12.6359 N   0  0  0  0  0  0  0  0  0  0  0  0
   -1.3953   -2.3925   11.9137 C   0  0  0  0  0  0  0  0  0  0  0  0
   -0.5359   -3.0277   10.9298 C   0  0  0  0  0  0  0  0  0  0  0  0
   -0.6746   -4.3755   10.6237 C   0  0  0  0  0  0  0  0  0  0  0  0
    0.2623   -4.9376    9.7442 C   0  0  0  0  0  0  0  0  0  0  0  0
    1.2914   -4.2288    9.1781 C   0  0  0  0  0  0  0  0  0  0  0  0
    1.4207   -2.8964    9.4809 C   0  0  0  0  0  0  0  0  0  0  0  0
    0.5074   -2.3220   10.3482 C   0  0  0  0  0  0  0  0  0  0  0  0
    2.4382   -4.9903    8.0761 S   0  0  0  0  0  6  0  0  0  0  0  0
    1.7095   -5.3085    6.8015 O   0  0  0  0  0  0  0  0  0  0  0  0
    2.9436   -6.2816    8.6566 O   0  0  0  0  0  0  0  0  0  0  0  0
    3.7580   -3.8613    7.7645 C   0  0  0  0  0  0  0  0  0  0  0  0
   -1.7758   -5.2320   11.0567 C   0  0  0  0  0  0  0  0  0  0  0  0
   -1.6479   -5.5702   12.4133 F   0  0  0  0  0  0  0  0  0  0  0  0
   -2.1075   -6.3120   10.3557 F   0  0  0  0  0  0  0  0  0  0  0  0
   -2.9526   -4.4298   11.0732 F   0  0  0  0  0  0  0  0  0  0  0  0
   -1.5218    0.8196   11.5318 N   0  0  0  0  0  0  0  0  0  0  0  0
   -1.4950    2.1500   11.4534 C   0  0  0  0  0  0  0  0  0  0  0  0
   -0.7546    2.8806   12.3877 C   0  0  0  0  0  0  0  0  0  0  0  0
   -0.0902    2.1540   13.3433 C   0  0  0  0  0  0  0  0  0  0  0  0
    1.2787    0.1250   15.3309 C   0  0  0  0  0  0  0  0  0  0  0  0
    1.3098    1.6001   15.5997 C   0  0  0  0  0  0  0  0  0  0  0  0
    1.1088    2.4623   14.7321 O   0  0  0  0  0  0  0  0  0  0  0  0
    1.5774    1.9818   16.8879 O   0  0  0  0  0  0  0  0  0  0  0  0
  1  2  1  0
  2  3  2  0
  3  4  1  0
  4  5  2  0
  5  6  1  0
  6  7  1  0
  7  8  1  0
  8  9  2  0
  9 10  1  0
 10 11  2  0
 11 12  1  0
 12 13  2  0
 11 14  1  0
 14 15  2  0
 14 16  2  0
 14 17  1  0
  9 18  1  0
 18 19  1  0
 18 20  1  0
 18 21  1  0
  5 22  1  0
 22 23  2  0
 23 24  1  0
 24 25  2  0
  3 26  1  0
 26 27  1  0
 27 28  2  0
 27 29  1  0
  6  2  1  0
 25  4  1  0
 13  8  1  0
M  END
$$$$
