
     RDKit          3D

 29 31  0  0  0  0  0  0  0  0999 V2000
   -2.3792   -0.6281   14.9370 C   0  0  0  0  0  0  0  0  0  0  0  0
   -1.8963    0.4486   14.0243 C   0  0  0  0  0  0  0  0  0  0  0  0
   -1.2277    1.5616   14.4712 C   0  0  0  0  0  0  0  0  0  0  0  0
   -0.8943    2.3209   13.3789 C   0  0  0  0  0  0  0  0  0  0  0  0
   -1.3804    1.6333   12.2871 C   0  0  0  0  0  0  0  0  0  0  0  0
   -1.9924    0.4975   12.6500 N   0  0  0  0  0  0  0  0  0  0  0  0
   -2.6233   -0.5611   11.8769 C   0  0  0  0  0  0  0  0  0  0  0  0
   -1.7491   -1.6134   11.3882 C   0  0  0  0  0  0  0  0  0  0  0  0
   -2.1891   -2.9285   11.3084 C   0  0  0  0  0  0  0  0  0  0  0  0
   -1.2523   -3.9009   10.9291 C   0  0  0  0  0  0  0  0  0  0  0  0
    0.0574   -3.6180   10.6344 C   0  0  0  0  0  0  0  0  0  0  0  0
    0.4852   -2.3162   10.7108 C   0  0  0  0  0  0  0  0  0  0  0  0
   -0.4231   -1.3408   11.0849 C   0  0  0  0  0  0  0  0  0  0  0  0
    1.1895   -4.8842   10.1604 S   0  0  0  0  0  6  0  0  0  0  0  0
    1.9963   -4.3698    9.0022 O   0  0  0  0  0  0  0  0  0  0  0  0
    0.4453   -6.1068    9.7011 O   0  0  0  0  0  0  0  0  0  0  0  0
    2.2412   -5.2443   11.5307 C   0  0  0  0  0  0  0  0  0  0  0  0
   -3.5706   -3.3700   11.4831 C   0  0  0  0  0  0  0  0  0  0  0  0
   -4.4556   -2.5540   10.7605 F   0  0  0  0  0  0  0  0  0  0  0  0
   -4.0596   -3.5933   12.6991 F   0  0  0  0  0  0  0  0  0  0  0  0
   -3.7061   -4.6121   10.7993 F   0  0  0  0  0  0  0  0  0  0  0  0
   -1.1476    2.2160   11.1092 N   0  0  0  0  0  0  0  0  0  0  0  0
   -0.5084    3.3669   10.9002 C   0  0  0  0  0  0  0  0  0  0  0  0
   -0.0071    4.0847   11.9904 C   0  0  0  0  0  0  0  0  0  0  0  0
   -0.2147    3.5356   13.2305 C   0  0  0  0  0  0  0  0  0  0  0  0
   -0.8843    1.9370   15.8644 C   0  0  0  0  0  0  0  0  0  0  0  0
    0.5947    2.1227   16.0301 C   0  0  0  0  0  0  0  0  0  0  0  0
    1.3320    2.5937   15.1520 O   0  0  0  0  0  0  0  0  0  0  0  0
    1.1284    1.7405   17.2326 O   0  0  0  0  0  0  0  0  0  0  0  0
  1  2  1  0
  2  3  2  0
  3  4  1  0
  4  5  2  0
  5  6  1  0
  6  7  1  0
  7  8  1  0
  8  9  2  0
  9 10  1  0
 10 11  2  0
 11 12  1  0
 12 13  2  0
 11 14  1  0
 14 15  2  0
 14 16  2  0
 14 17  1  0
  9 18  1  0
 18 19  1  0
 18 20  1  0
 18 21  1  0
  5 22  1  0
 22 23  2  0
 23 24  1  0
 24 25  2  0
  3 26  1  0
 26 27  1  0
 27 28  2  0
 27 29  1  0
  6  2  1  0
 25  4  1  0
 13  8  1  0
M  END
$$$$
