
     RDKit          3D

 29 31  0  0  0  0  0  0  0  0999 V2000
    2.9243   -4.8618   12.2400 C   0  0  0  0  0  0  0  0  0  0  0  0
    1.5419   -5.3468   11.9585 C   0  0  0  0  0  0  0  0  0  0  0  0
    0.5959   -5.5154   12.9394 C   0  0  0  0  0  0  0  0  0  0  0  0
   -0.5657   -5.9295   12.3392 C   0  0  0  0  0  0  0  0  0  0  0  0
   -0.2816   -6.0011   10.9918 C   0  0  0  0  0  0  0  0  0  0  0  0
    0.9873   -5.6549   10.7347 N   0  0  0  0  0  0  0  0  0  0  0  0
    1.7356   -5.5428    9.4920 C   0  0  0  0  0  0  0  0  0  0  0  0
    1.6296   -4.2778    8.7857 C   0  0  0  0  0  0  0  0  0  0  0  0
    2.4975   -3.9640    7.7475 C   0  0  0  0  0  0  0  0  0  0  0  0
    2.3992   -2.6812    7.1892 C   0  0  0  0  0  0  0  0  0  0  0  0
    1.4976   -1.7373    7.6114 C   0  0  0  0  0  0  0  0  0  0  0  0
    0.6397   -2.0547    8.6347 C   0  0  0  0  0  0  0  0  0  0  0  0
    0.7209   -3.3152    9.2011 C   0  0  0  0  0  0  0  0  0  0  0  0
    1.4192   -0.1402    6.8682 S   0  0  0  0  0  6  0  0  0  0  0  0
    0.6504   -0.2677    5.5839 O   0  0  0  0  0  0  0  0  0  0  0  0
    2.8005    0.3509    6.5355 O   0  0  0  0  0  0  0  0  0  0  0  0
    0.5916    0.9580    7.9739 C   0  0  0  0  0  0  0  0  0  0  0  0
    3.4322   -4.8927    7.1170 C   0  0  0  0  0  0  0  0  0  0  0  0
    4.3417   -5.4069    8.0549 F   0  0  0  0  0  0  0  0  0  0  0  0
    4.0797   -4.5500    6.0074 F   0  0  0  0  0  0  0  0  0  0  0  0
    2.6951   -6.0597    6.7660 F   0  0  0  0  0  0  0  0  0  0  0  0
   -1.3028   -6.3866   10.2239 N   0  0  0  0  0  0  0  0  0  0  0  0
   -2.5333   -6.6996   10.6298 C   0  0  0  0  0  0  0  0  0  0  0  0
   -2.8470   -6.6368   11.9909 C   0  0  0  0  0  0  0  0  0  0  0  0
   -1.8369   -6.2454   12.8329 C   0  0  0  0  0  0  0  0  0  0  0  0
    0.7300   -5.2997   14.4007 C   0  0  0  0  0  0  0  0  0  0  0  0
    1.1741   -6.5510   15.0979 C   0  0  0  0  0  0  0  0  0  0  0  0
    0.7572   -7.6830   14.8127 O   0  0  0  0  0  0  0  0  0  0  0  0
    2.0942   -6.3986   16.1014 O   0  0  0  0  0  0  0  0  0  0  0  0
  1  2  1  0
  2  3  2  0
  3  4  1  0
  4  5  2  0
  5  6  1  0
  6  7  1  0
  7  8  1  0
  8  9  2  0
  9 10  1  0
 10 11  2  0
 11 12  1  0
 12 13  2  0
 11 14  1  0
 14 15  2  0
 14 16  2  0
 14 17  1  0
  9 18  1  0
 18 19  1  0
 18 20  1  0
 18 21  1  0
  5 22  1  0
 22 23  2  0
 23 24  1  0
 24 25  2  0
  3 26  1  0
 26 27  1  0
 27 28  2  0
 27 29  1  0
  6  2  1  0
 25  4  1  0
 13  8  1  0
M  END
$$$$
