
     RDKit          3D

 29 31  0  0  0  0  0  0  0  0999 V2000
   -3.0984   -2.0128   11.4246 C   0  0  0  0  0  0  0  0  0  0  0  0
   -1.8966   -1.4457   12.1025 C   0  0  0  0  0  0  0  0  0  0  0  0
   -1.8555   -0.1676   12.6028 C   0  0  0  0  0  0  0  0  0  0  0  0
   -0.6305    0.0162   13.1915 C   0  0  0  0  0  0  0  0  0  0  0  0
    0.0432   -1.1753   13.0253 C   0  0  0  0  0  0  0  0  0  0  0  0
   -0.7000   -2.0764   12.3683 N   0  0  0  0  0  0  0  0  0  0  0  0
   -0.4486   -3.4581   11.9883 C   0  0  0  0  0  0  0  0  0  0  0  0
    0.3814   -3.6647   10.8141 C   0  0  0  0  0  0  0  0  0  0  0  0
    0.7501   -4.9432   10.4154 C   0  0  0  0  0  0  0  0  0  0  0  0
    1.6398   -5.0518    9.3367 C   0  0  0  0  0  0  0  0  0  0  0  0
    2.1525   -3.9711    8.6648 C   0  0  0  0  0  0  0  0  0  0  0  0
    1.7813   -2.7105    9.0605 C   0  0  0  0  0  0  0  0  0  0  0  0
    0.9051   -2.5807   10.1244 C   0  0  0  0  0  0  0  0  0  0  0  0
    3.2667   -4.1705    7.3127 S   0  0  0  0  0  6  0  0  0  0  0  0
    3.1815   -5.5982    6.8531 O   0  0  0  0  0  0  0  0  0  0  0  0
    4.6793   -3.9088    7.7552 O   0  0  0  0  0  0  0  0  0  0  0  0
    2.7827   -3.0770    6.0152 C   0  0  0  0  0  0  0  0  0  0  0  0
    0.2072   -6.1869   10.9561 C   0  0  0  0  0  0  0  0  0  0  0  0
    0.4819   -6.3024   12.3281 F   0  0  0  0  0  0  0  0  0  0  0  0
    0.4470   -7.3472   10.3526 F   0  0  0  0  0  0  0  0  0  0  0  0
   -1.2115   -6.0615   10.9594 F   0  0  0  0  0  0  0  0  0  0  0  0
    1.2727   -1.2004   13.5437 N   0  0  0  0  0  0  0  0  0  0  0  0
    1.8887   -0.2082   14.1864 C   0  0  0  0  0  0  0  0  0  0  0  0
    1.2283    1.0108   14.3669 C   0  0  0  0  0  0  0  0  0  0  0  0
   -0.0419    1.0988   13.8557 C   0  0  0  0  0  0  0  0  0  0  0  0
   -2.9079    0.8766   12.5602 C   0  0  0  0  0  0  0  0  0  0  0  0
   -3.4928    1.1169   13.9201 C   0  0  0  0  0  0  0  0  0  0  0  0
   -3.3585    0.3377   14.8747 O   0  0  0  0  0  0  0  0  0  0  0  0
   -4.2095    2.2731   14.0823 O   0  0  0  0  0  0  0  0  0  0  0  0
  1  2  1  0
  2  3  2  0
  3  4  1  0
  4  5  2  0
  5  6  1  0
  6  7  1  0
  7  8  1  0
  8  9  2  0
  9 10  1  0
 10 11  2  0
 11 12  1  0
 12 13  2  0
 11 14  1  0
 14 15  2  0
 14 16  2  0
 14 17  1  0
  9 18  1  0
 18 19  1  0
 18 20  1  0
 18 21  1  0
  5 22  1  0
 22 23  2  0
 23 24  1  0
 24 25  2  0
  3 26  1  0
 26 27  1  0
 27 28  2  0
 27 29  1  0
  6  2  1  0
 25  4  1  0
 13  8  1  0
M  END
$$$$
