
     RDKit          3D

 29 31  0  0  0  0  0  0  0  0999 V2000
   -2.1067    1.6065   11.0952 C   0  0  0  0  0  0  0  0  0  0  0  0
   -1.2348    1.0820   12.1861 C   0  0  0  0  0  0  0  0  0  0  0  0
   -0.4034    1.8845   12.9280 C   0  0  0  0  0  0  0  0  0  0  0  0
    0.2187    1.0978   13.8635 C   0  0  0  0  0  0  0  0  0  0  0  0
   -0.2624   -0.1774   13.6545 C   0  0  0  0  0  0  0  0  0  0  0  0
   -1.1424   -0.2148   12.6444 N   0  0  0  0  0  0  0  0  0  0  0  0
   -1.9310   -1.2976   12.0768 C   0  0  0  0  0  0  0  0  0  0  0  0
   -1.1982   -2.3156   11.3440 C   0  0  0  0  0  0  0  0  0  0  0  0
   -1.7584   -3.5630   11.0998 C   0  0  0  0  0  0  0  0  0  0  0  0
   -0.9471   -4.5252   10.4810 C   0  0  0  0  0  0  0  0  0  0  0  0
    0.3530   -4.2947   10.1082 C   0  0  0  0  0  0  0  0  0  0  0  0
    0.8996   -3.0589   10.3482 C   0  0  0  0  0  0  0  0  0  0  0  0
    0.1164   -2.0949   10.9595 C   0  0  0  0  0  0  0  0  0  0  0  0
    1.3240   -5.5444    9.3306 S   0  0  0  0  0  6  0  0  0  0  0  0
    0.7831   -6.8794    9.7572 O   0  0  0  0  0  0  0  0  0  0  0  0
    2.7538   -5.4558    9.7862 O   0  0  0  0  0  0  0  0  0  0  0  0
    1.1904   -5.3574    7.5811 C   0  0  0  0  0  0  0  0  0  0  0  0
   -3.1539   -3.9242   11.3364 C   0  0  0  0  0  0  0  0  0  0  0  0
   -3.3968   -5.2595   10.9772 F   0  0  0  0  0  0  0  0  0  0  0  0
   -4.1374   -3.1529   10.8830 F   0  0  0  0  0  0  0  0  0  0  0  0
   -3.3443   -3.9698   12.7472 F   0  0  0  0  0  0  0  0  0  0  0  0
    0.2261   -1.1029   14.4826 N   0  0  0  0  0  0  0  0  0  0  0  0
    1.1100   -0.9115   15.4619 C   0  0  0  0  0  0  0  0  0  0  0  0
    1.6147    0.3717   15.6937 C   0  0  0  0  0  0  0  0  0  0  0  0
    1.1492    1.3683   14.8737 C   0  0  0  0  0  0  0  0  0  0  0  0
   -0.1747    3.3447   12.8042 C   0  0  0  0  0  0  0  0  0  0  0  0
   -0.4742    4.0544   14.0910 C   0  0  0  0  0  0  0  0  0  0  0  0
    0.2973    4.0760   15.0610 O   0  0  0  0  0  0  0  0  0  0  0  0
   -1.6768    4.7064   14.1646 O   0  0  0  0  0  0  0  0  0  0  0  0
  1  2  1  0
  2  3  2  0
  3  4  1  0
  4  5  2  0
  5  6  1  0
  6  7  1  0
  7  8  1  0
  8  9  2  0
  9 10  1  0
 10 11  2  0
 11 12  1  0
 12 13  2  0
 11 14  1  0
 14 15  2  0
 14 16  2  0
 14 17  1  0
  9 18  1  0
 18 19  1  0
 18 20  1  0
 18 21  1  0
  5 22  1  0
 22 23  2  0
 23 24  1  0
 24 25  2  0
  3 26  1  0
 26 27  1  0
 27 28  2  0
 27 29  1  0
  6  2  1  0
 25  4  1  0
 13  8  1  0
M  END
$$$$
