
     RDKit          3D

 29 31  0  0  0  0  0  0  0  0999 V2000
   -2.9030   -2.8840   11.2714 C   0  0  0  0  0  0  0  0  0  0  0  0
   -1.8066   -2.0886   11.8965 C   0  0  0  0  0  0  0  0  0  0  0  0
   -1.9736   -0.7943   12.3237 C   0  0  0  0  0  0  0  0  0  0  0  0
   -0.7917   -0.3777   12.8808 C   0  0  0  0  0  0  0  0  0  0  0  0
    0.0683   -1.4497   12.7705 C   0  0  0  0  0  0  0  0  0  0  0  0
   -0.5204   -2.4974   12.1773 N   0  0  0  0  0  0  0  0  0  0  0  0
   -0.0469   -3.8386   11.8712 C   0  0  0  0  0  0  0  0  0  0  0  0
    0.7510   -3.9828   10.6659 C   0  0  0  0  0  0  0  0  0  0  0  0
    1.1648   -5.2346   10.2283 C   0  0  0  0  0  0  0  0  0  0  0  0
    2.0211   -5.2800    9.1184 C   0  0  0  0  0  0  0  0  0  0  0  0
    2.4597   -4.1635    8.4528 C   0  0  0  0  0  0  0  0  0  0  0  0
    2.0440   -2.9297    8.8871 C   0  0  0  0  0  0  0  0  0  0  0  0
    1.1998   -2.8622    9.9821 C   0  0  0  0  0  0  0  0  0  0  0  0
    3.5349   -4.2837    7.0603 S   0  0  0  0  0  6  0  0  0  0  0  0
    3.8513   -5.7368    6.8476 O   0  0  0  0  0  0  0  0  0  0  0  0
    4.8256   -3.5625    7.3315 O   0  0  0  0  0  0  0  0  0  0  0  0
    2.7085   -3.6213    5.6490 C   0  0  0  0  0  0  0  0  0  0  0  0
    0.6992   -6.5128   10.7604 C   0  0  0  0  0  0  0  0  0  0  0  0
   -0.6236   -6.7707   10.3669 F   0  0  0  0  0  0  0  0  0  0  0  0
    0.8468   -6.8016   12.0499 F   0  0  0  0  0  0  0  0  0  0  0  0
    1.4064   -7.5392   10.0714 F   0  0  0  0  0  0  0  0  0  0  0  0
    1.2888   -1.2421   13.2690 N   0  0  0  0  0  0  0  0  0  0  0  0
    1.7370   -0.1266   13.8448 C   0  0  0  0  0  0  0  0  0  0  0  0
    0.8856    0.9756   13.9677 C   0  0  0  0  0  0  0  0  0  0  0  0
   -0.3853    0.8236   13.4735 C   0  0  0  0  0  0  0  0  0  0  0  0
   -3.1844    0.0583   12.2401 C   0  0  0  0  0  0  0  0  0  0  0  0
   -3.7651    0.3151   13.5988 C   0  0  0  0  0  0  0  0  0  0  0  0
   -3.8715   -0.5530   14.4772 O   0  0  0  0  0  0  0  0  0  0  0  0
   -4.1916    1.5924   13.8504 O   0  0  0  0  0  0  0  0  0  0  0  0
  1  2  1  0
  2  3  2  0
  3  4  1  0
  4  5  2  0
  5  6  1  0
  6  7  1  0
  7  8  1  0
  8  9  2  0
  9 10  1  0
 10 11  2  0
 11 12  1  0
 12 13  2  0
 11 14  1  0
 14 15  2  0
 14 16  2  0
 14 17  1  0
  9 18  1  0
 18 19  1  0
 18 20  1  0
 18 21  1  0
  5 22  1  0
 22 23  2  0
 23 24  1  0
 24 25  2  0
  3 26  1  0
 26 27  1  0
 27 28  2  0
 27 29  1  0
  6  2  1  0
 25  4  1  0
 13  8  1  0
M  END
$$$$
