
     RDKit          3D

 29 31  0  0  0  0  0  0  0  0999 V2000
   -1.5683   -3.4623    8.4029 C   0  0  0  0  0  0  0  0  0  0  0  0
   -0.5173   -3.1656    9.4192 C   0  0  0  0  0  0  0  0  0  0  0  0
    0.7387   -3.7190    9.3774 C   0  0  0  0  0  0  0  0  0  0  0  0
    1.4604   -3.2079   10.4257 C   0  0  0  0  0  0  0  0  0  0  0  0
    0.6045   -2.3480   11.0808 C   0  0  0  0  0  0  0  0  0  0  0  0
   -0.5992   -2.3050   10.4930 N   0  0  0  0  0  0  0  0  0  0  0  0
   -1.8011   -1.5393   10.7853 C   0  0  0  0  0  0  0  0  0  0  0  0
   -1.6833   -0.5185   11.8122 C   0  0  0  0  0  0  0  0  0  0  0  0
   -2.6781   -0.3464   12.7663 C   0  0  0  0  0  0  0  0  0  0  0  0
   -2.5405    0.7291   13.6558 C   0  0  0  0  0  0  0  0  0  0  0  0
   -1.4840    1.6039   13.6304 C   0  0  0  0  0  0  0  0  0  0  0  0
   -0.5020    1.4262   12.6882 C   0  0  0  0  0  0  0  0  0  0  0  0
   -0.6192    0.3715   11.7993 C   0  0  0  0  0  0  0  0  0  0  0  0
   -1.3641    2.9377   14.7776 S   0  0  0  0  0  6  0  0  0  0  0  0
    0.0464    3.4532   14.7379 O   0  0  0  0  0  0  0  0  0  0  0  0
   -1.6425    2.4543   16.1735 O   0  0  0  0  0  0  0  0  0  0  0  0
   -2.4950    4.2028   14.2941 C   0  0  0  0  0  0  0  0  0  0  0  0
   -3.8012   -1.2534   12.9899 C   0  0  0  0  0  0  0  0  0  0  0  0
   -4.2969   -1.1291   14.2976 F   0  0  0  0  0  0  0  0  0  0  0  0
   -3.7048   -2.5399   12.6684 F   0  0  0  0  0  0  0  0  0  0  0  0
   -4.8971   -0.7647   12.2225 F   0  0  0  0  0  0  0  0  0  0  0  0
    1.1305   -1.7365   12.1439 N   0  0  0  0  0  0  0  0  0  0  0  0
    2.3694   -1.8785   12.6150 C   0  0  0  0  0  0  0  0  0  0  0  0
    3.2568   -2.7454   11.9701 C   0  0  0  0  0  0  0  0  0  0  0  0
    2.7740   -3.4044   10.8678 C   0  0  0  0  0  0  0  0  0  0  0  0
    1.2891   -4.6912    8.4019 C   0  0  0  0  0  0  0  0  0  0  0  0
    1.1580   -6.0990    8.9022 C   0  0  0  0  0  0  0  0  0  0  0  0
    0.0724   -6.6784    9.0510 O   0  0  0  0  0  0  0  0  0  0  0  0
    2.3240   -6.7530    9.2014 O   0  0  0  0  0  0  0  0  0  0  0  0
  1  2  1  0
  2  3  2  0
  3  4  1  0
  4  5  2  0
  5  6  1  0
  6  7  1  0
  7  8  1  0
  8  9  2  0
  9 10  1  0
 10 11  2  0
 11 12  1  0
 12 13  2  0
 11 14  1  0
 14 15  2  0
 14 16  2  0
 14 17  1  0
  9 18  1  0
 18 19  1  0
 18 20  1  0
 18 21  1  0
  5 22  1  0
 22 23  2  0
 23 24  1  0
 24 25  2  0
  3 26  1  0
 26 27  1  0
 27 28  2  0
 27 29  1  0
  6  2  1  0
 25  4  1  0
 13  8  1  0
M  END
$$$$
