
     RDKit          3D

 29 31  0  0  0  0  0  0  0  0999 V2000
   -0.3681   -2.6367   13.3784 C   0  0  0  0  0  0  0  0  0  0  0  0
    0.0808   -2.6445   11.9558 C   0  0  0  0  0  0  0  0  0  0  0  0
    1.2796   -3.1804   11.5543 C   0  0  0  0  0  0  0  0  0  0  0  0
    1.3602   -3.0604   10.1905 C   0  0  0  0  0  0  0  0  0  0  0  0
    0.1891   -2.4445    9.8027 C   0  0  0  0  0  0  0  0  0  0  0  0
   -0.6021   -2.1807   10.8517 N   0  0  0  0  0  0  0  0  0  0  0  0
   -1.9251   -1.5836   10.9504 C   0  0  0  0  0  0  0  0  0  0  0  0
   -1.9719   -0.1448   11.1453 C   0  0  0  0  0  0  0  0  0  0  0  0
   -3.1852    0.5221   11.2578 C   0  0  0  0  0  0  0  0  0  0  0  0
   -3.1478    1.9219   11.3357 C   0  0  0  0  0  0  0  0  0  0  0  0
   -1.9866    2.6521   11.3099 C   0  0  0  0  0  0  0  0  0  0  0  0
   -0.7907    1.9874   11.2030 C   0  0  0  0  0  0  0  0  0  0  0  0
   -0.8051    0.6055   11.1232 C   0  0  0  0  0  0  0  0  0  0  0  0
   -2.0025    4.4124   11.4142 S   0  0  0  0  0  6  0  0  0  0  0  0
   -1.4739    4.7978   12.7665 O   0  0  0  0  0  0  0  0  0  0  0  0
   -3.4088    4.9310   11.3004 O   0  0  0  0  0  0  0  0  0  0  0  0
   -0.9684    5.0635   10.1413 C   0  0  0  0  0  0  0  0  0  0  0  0
   -4.4903   -0.1166   11.4086 C   0  0  0  0  0  0  0  0  0  0  0  0
   -4.6770   -1.1163   10.4406 F   0  0  0  0  0  0  0  0  0  0  0  0
   -5.5938    0.6178   11.5119 F   0  0  0  0  0  0  0  0  0  0  0  0
   -4.4477   -0.8852   12.6069 F   0  0  0  0  0  0  0  0  0  0  0  0
    0.0720   -2.2408    8.4889 N   0  0  0  0  0  0  0  0  0  0  0  0
    0.9577   -2.5681    7.5480 C   0  0  0  0  0  0  0  0  0  0  0  0
    2.1539   -3.1922    7.9148 C   0  0  0  0  0  0  0  0  0  0  0  0
    2.3331   -3.4297    9.2542 C   0  0  0  0  0  0  0  0  0  0  0  0
    2.3397   -3.8013   12.3853 C   0  0  0  0  0  0  0  0  0  0  0  0
    2.4879   -5.2617   12.0779 C   0  0  0  0  0  0  0  0  0  0  0  0
    1.8272   -5.8534   11.2119 O   0  0  0  0  0  0  0  0  0  0  0  0
    3.4155   -5.9507   12.8138 O   0  0  0  0  0  0  0  0  0  0  0  0
  1  2  1  0
  2  3  2  0
  3  4  1  0
  4  5  2  0
  5  6  1  0
  6  7  1  0
  7  8  1  0
  8  9  2  0
  9 10  1  0
 10 11  2  0
 11 12  1  0
 12 13  2  0
 11 14  1  0
 14 15  2  0
 14 16  2  0
 14 17  1  0
  9 18  1  0
 18 19  1  0
 18 20  1  0
 18 21  1  0
  5 22  1  0
 22 23  2  0
 23 24  1  0
 24 25  2  0
  3 26  1  0
 26 27  1  0
 27 28  2  0
 27 29  1  0
  6  2  1  0
 25  4  1  0
 13  8  1  0
M  END
$$$$
