
     RDKit          3D

 29 31  0  0  0  0  0  0  0  0999 V2000
   -1.6414   -0.8842    9.5791 C   0  0  0  0  0  0  0  0  0  0  0  0
   -0.8902   -0.9416   10.8667 C   0  0  0  0  0  0  0  0  0  0  0  0
   -1.4455   -0.5863   12.0712 C   0  0  0  0  0  0  0  0  0  0  0  0
   -0.5050   -0.7944   13.0475 C   0  0  0  0  0  0  0  0  0  0  0  0
    0.6088   -1.2758   12.3927 C   0  0  0  0  0  0  0  0  0  0  0  0
    0.4029   -1.3732   11.0721 N   0  0  0  0  0  0  0  0  0  0  0  0
    1.2454   -1.8485    9.9854 C   0  0  0  0  0  0  0  0  0  0  0  0
    1.3651   -3.2893    9.8432 C   0  0  0  0  0  0  0  0  0  0  0  0
    2.0852   -3.8465    8.7942 C   0  0  0  0  0  0  0  0  0  0  0  0
    2.0631   -5.2429    8.6658 C   0  0  0  0  0  0  0  0  0  0  0  0
    1.3769   -6.0720    9.5167 C   0  0  0  0  0  0  0  0  0  0  0  0
    0.6708   -5.5159   10.5539 C   0  0  0  0  0  0  0  0  0  0  0  0
    0.6780   -4.1391   10.6979 C   0  0  0  0  0  0  0  0  0  0  0  0
    1.3885   -7.8227    9.3061 S   0  0  0  0  0  6  0  0  0  0  0  0
    2.0769   -8.4249   10.4979 O   0  0  0  0  0  0  0  0  0  0  0  0
    2.1720   -8.1973    8.0791 O   0  0  0  0  0  0  0  0  0  0  0  0
   -0.2790   -8.3912    9.2069 C   0  0  0  0  0  0  0  0  0  0  0  0
    2.9499   -3.1090    7.8764 C   0  0  0  0  0  0  0  0  0  0  0  0
    4.0795   -2.6068    8.5420 F   0  0  0  0  0  0  0  0  0  0  0  0
    2.4458   -2.1709    7.0804 F   0  0  0  0  0  0  0  0  0  0  0  0
    3.5385   -4.0605    6.9950 F   0  0  0  0  0  0  0  0  0  0  0  0
    1.6484   -1.5497   13.1835 N   0  0  0  0  0  0  0  0  0  0  0  0
    1.7052   -1.4035   14.5072 C   0  0  0  0  0  0  0  0  0  0  0  0
    0.5900   -0.9157   15.1951 C   0  0  0  0  0  0  0  0  0  0  0  0
   -0.5128   -0.6158   14.4359 C   0  0  0  0  0  0  0  0  0  0  0  0
   -2.8095   -0.0723   12.3451 C   0  0  0  0  0  0  0  0  0  0  0  0
   -2.8447    0.7330   13.6098 C   0  0  0  0  0  0  0  0  0  0  0  0
   -1.8306    1.1315   14.2007 O   0  0  0  0  0  0  0  0  0  0  0  0
   -4.0844    1.0281   14.1129 O   0  0  0  0  0  0  0  0  0  0  0  0
  1  2  1  0
  2  3  2  0
  3  4  1  0
  4  5  2  0
  5  6  1  0
  6  7  1  0
  7  8  1  0
  8  9  2  0
  9 10  1  0
 10 11  2  0
 11 12  1  0
 12 13  2  0
 11 14  1  0
 14 15  2  0
 14 16  2  0
 14 17  1  0
  9 18  1  0
 18 19  1  0
 18 20  1  0
 18 21  1  0
  5 22  1  0
 22 23  2  0
 23 24  1  0
 24 25  2  0
  3 26  1  0
 26 27  1  0
 27 28  2  0
 27 29  1  0
  6  2  1  0
 25  4  1  0
 13  8  1  0
M  END
$$$$
