
     RDKit          3D

 29 31  0  0  0  0  0  0  0  0999 V2000
   -2.9901   -3.2465   10.6844 C   0  0  0  0  0  0  0  0  0  0  0  0
   -1.5334   -2.9280   10.6374 C   0  0  0  0  0  0  0  0  0  0  0  0
   -0.6713   -3.5076    9.7395 C   0  0  0  0  0  0  0  0  0  0  0  0
    0.5732   -2.9671    9.9397 C   0  0  0  0  0  0  0  0  0  0  0  0
    0.4234   -2.0633   10.9702 C   0  0  0  0  0  0  0  0  0  0  0  0
   -0.8413   -2.0212   11.4114 N   0  0  0  0  0  0  0  0  0  0  0  0
   -1.4907   -1.2199   12.4375 C   0  0  0  0  0  0  0  0  0  0  0  0
   -1.5477    0.2120   12.1996 C   0  0  0  0  0  0  0  0  0  0  0  0
   -1.9813    1.0844   13.1899 C   0  0  0  0  0  0  0  0  0  0  0  0
   -2.1096    2.4382   12.8468 C   0  0  0  0  0  0  0  0  0  0  0  0
   -1.8281    2.9343   11.5991 C   0  0  0  0  0  0  0  0  0  0  0  0
   -1.3960    2.0683   10.6260 C   0  0  0  0  0  0  0  0  0  0  0  0
   -1.2638    0.7273   10.9432 C   0  0  0  0  0  0  0  0  0  0  0  0
   -2.0064    4.6488   11.2274 S   0  0  0  0  0  6  0  0  0  0  0  0
   -2.8223    5.2746   12.3226 O   0  0  0  0  0  0  0  0  0  0  0  0
   -2.7499    4.8295    9.9335 O   0  0  0  0  0  0  0  0  0  0  0  0
   -0.4030    5.3823   11.1594 C   0  0  0  0  0  0  0  0  0  0  0  0
   -2.2133    0.7287   14.5876 C   0  0  0  0  0  0  0  0  0  0  0  0
   -1.0636    0.9517   15.3619 F   0  0  0  0  0  0  0  0  0  0  0  0
   -2.7459   -0.4472   14.9058 F   0  0  0  0  0  0  0  0  0  0  0  0
   -3.1105    1.6953   15.1253 F   0  0  0  0  0  0  0  0  0  0  0  0
    1.5393   -1.4179   11.3156 N   0  0  0  0  0  0  0  0  0  0  0  0
    2.7475   -1.5645   10.7717 C   0  0  0  0  0  0  0  0  0  0  0  0
    2.9267   -2.4756    9.7263 C   0  0  0  0  0  0  0  0  0  0  0  0
    1.8141   -3.1709    9.3248 C   0  0  0  0  0  0  0  0  0  0  0  0
   -0.9623   -4.5311    8.7063 C   0  0  0  0  0  0  0  0  0  0  0  0
   -0.2321   -5.8108    8.9857 C   0  0  0  0  0  0  0  0  0  0  0  0
    0.1562   -6.1499   10.1130 O   0  0  0  0  0  0  0  0  0  0  0  0
    0.0019   -6.6288    7.9119 O   0  0  0  0  0  0  0  0  0  0  0  0
  1  2  1  0
  2  3  2  0
  3  4  1  0
  4  5  2  0
  5  6  1  0
  6  7  1  0
  7  8  1  0
  8  9  2  0
  9 10  1  0
 10 11  2  0
 11 12  1  0
 12 13  2  0
 11 14  1  0
 14 15  2  0
 14 16  2  0
 14 17  1  0
  9 18  1  0
 18 19  1  0
 18 20  1  0
 18 21  1  0
  5 22  1  0
 22 23  2  0
 23 24  1  0
 24 25  2  0
  3 26  1  0
 26 27  1  0
 27 28  2  0
 27 29  1  0
  6  2  1  0
 25  4  1  0
 13  8  1  0
M  END
$$$$
