
     RDKit          3D

 29 31  0  0  0  0  0  0  0  0999 V2000
    1.4951    1.0130   14.6822 C   0  0  0  0  0  0  0  0  0  0  0  0
    0.3902    1.8537   14.1363 C   0  0  0  0  0  0  0  0  0  0  0  0
    0.0025    3.0402   14.7086 C   0  0  0  0  0  0  0  0  0  0  0  0
   -1.0018    3.5713   13.9404 C   0  0  0  0  0  0  0  0  0  0  0  0
   -1.1948    2.6745   12.9109 C   0  0  0  0  0  0  0  0  0  0  0  0
   -0.3662    1.6255   13.0066 N   0  0  0  0  0  0  0  0  0  0  0  0
   -0.1681    0.4581   12.1614 C   0  0  0  0  0  0  0  0  0  0  0  0
   -1.1905   -0.5715   12.2314 C   0  0  0  0  0  0  0  0  0  0  0  0
   -1.0993   -1.7229   11.4598 C   0  0  0  0  0  0  0  0  0  0  0  0
   -2.1789   -2.6171   11.5041 C   0  0  0  0  0  0  0  0  0  0  0  0
   -3.3022   -2.4127   12.2648 C   0  0  0  0  0  0  0  0  0  0  0  0
   -3.3847   -1.2753   13.0285 C   0  0  0  0  0  0  0  0  0  0  0  0
   -2.3305   -0.3785   12.9981 C   0  0  0  0  0  0  0  0  0  0  0  0
   -4.6278   -3.5754   12.2818 S   0  0  0  0  0  6  0  0  0  0  0  0
   -4.9001   -3.9833   10.8618 O   0  0  0  0  0  0  0  0  0  0  0  0
   -5.8750   -2.9396   12.8294 O   0  0  0  0  0  0  0  0  0  0  0  0
   -4.1407   -4.9742   13.2407 C   0  0  0  0  0  0  0  0  0  0  0  0
    0.0712   -2.1331   10.6882 C   0  0  0  0  0  0  0  0  0  0  0  0
   -0.1478   -3.3687   10.0585 F   0  0  0  0  0  0  0  0  0  0  0  0
    1.2815   -2.1198   11.2385 F   0  0  0  0  0  0  0  0  0  0  0  0
    0.1673   -1.2567    9.5696 F   0  0  0  0  0  0  0  0  0  0  0  0
   -2.1428    3.0202   12.0375 N   0  0  0  0  0  0  0  0  0  0  0  0
   -2.8964    4.1192   12.0704 C   0  0  0  0  0  0  0  0  0  0  0  0
   -2.7219    5.0439   13.1045 C   0  0  0  0  0  0  0  0  0  0  0  0
   -1.7595    4.7444   14.0355 C   0  0  0  0  0  0  0  0  0  0  0  0
    0.5331    3.6954   15.9288 C   0  0  0  0  0  0  0  0  0  0  0  0
   -0.4786    3.6869   17.0359 C   0  0  0  0  0  0  0  0  0  0  0  0
   -1.3716    2.8343   17.1459 O   0  0  0  0  0  0  0  0  0  0  0  0
   -0.3810    4.6922   17.9615 O   0  0  0  0  0  0  0  0  0  0  0  0
  1  2  1  0
  2  3  2  0
  3  4  1  0
  4  5  2  0
  5  6  1  0
  6  7  1  0
  7  8  1  0
  8  9  2  0
  9 10  1  0
 10 11  2  0
 11 12  1  0
 12 13  2  0
 11 14  1  0
 14 15  2  0
 14 16  2  0
 14 17  1  0
  9 18  1  0
 18 19  1  0
 18 20  1  0
 18 21  1  0
  5 22  1  0
 22 23  2  0
 23 24  1  0
 24 25  2  0
  3 26  1  0
 26 27  1  0
 27 28  2  0
 27 29  1  0
  6  2  1  0
 25  4  1  0
 13  8  1  0
M  END
$$$$
