
     RDKit          3D

 29 31  0  0  0  0  0  0  0  0999 V2000
   -0.7876   -0.9293   14.7957 C   0  0  0  0  0  0  0  0  0  0  0  0
   -0.7705    0.2868   13.9317 C   0  0  0  0  0  0  0  0  0  0  0  0
   -0.0977    1.4345   14.2717 C   0  0  0  0  0  0  0  0  0  0  0  0
   -0.2529    2.3339   13.2481 C   0  0  0  0  0  0  0  0  0  0  0  0
   -1.0286    1.6927   12.3056 C   0  0  0  0  0  0  0  0  0  0  0  0
   -1.3567    0.4531   12.6952 N   0  0  0  0  0  0  0  0  0  0  0  0
   -2.1167   -0.6046   12.0468 C   0  0  0  0  0  0  0  0  0  0  0  0
   -1.3483   -1.6003   11.3200 C   0  0  0  0  0  0  0  0  0  0  0  0
   -1.8670   -2.8657   11.0766 C   0  0  0  0  0  0  0  0  0  0  0  0
   -1.0224   -3.8029   10.4640 C   0  0  0  0  0  0  0  0  0  0  0  0
    0.2712   -3.5316   10.0963 C   0  0  0  0  0  0  0  0  0  0  0  0
    0.7768   -2.2783   10.3354 C   0  0  0  0  0  0  0  0  0  0  0  0
   -0.0397   -1.3384   10.9407 C   0  0  0  0  0  0  0  0  0  0  0  0
    1.2854   -4.7514    9.3262 S   0  0  0  0  0  6  0  0  0  0  0  0
    1.9910   -4.1003    8.1707 O   0  0  0  0  0  0  0  0  0  0  0  0
    0.4394   -5.8691    8.7833 O   0  0  0  0  0  0  0  0  0  0  0  0
    2.4556   -5.3416   10.5076 C   0  0  0  0  0  0  0  0  0  0  0  0
   -3.2512   -3.2709   11.3081 C   0  0  0  0  0  0  0  0  0  0  0  0
   -4.1385   -2.4893   10.5512 F   0  0  0  0  0  0  0  0  0  0  0  0
   -3.7176   -3.4053   12.5460 F   0  0  0  0  0  0  0  0  0  0  0  0
   -3.4208   -4.5529   10.7111 F   0  0  0  0  0  0  0  0  0  0  0  0
   -1.2908    2.4122   11.2126 N   0  0  0  0  0  0  0  0  0  0  0  0
   -0.8838    3.6559   10.9587 C   0  0  0  0  0  0  0  0  0  0  0  0
   -0.0975    4.3291   11.8986 C   0  0  0  0  0  0  0  0  0  0  0  0
    0.2071    3.6404   13.0455 C   0  0  0  0  0  0  0  0  0  0  0  0
    0.6838    1.7192   15.4997 C   0  0  0  0  0  0  0  0  0  0  0  0
    0.0255    2.7796   16.3312 C   0  0  0  0  0  0  0  0  0  0  0  0
   -0.4018    3.8485   15.8714 O   0  0  0  0  0  0  0  0  0  0  0  0
   -0.0953    2.5194   17.6708 O   0  0  0  0  0  0  0  0  0  0  0  0
  1  2  1  0
  2  3  2  0
  3  4  1  0
  4  5  2  0
  5  6  1  0
  6  7  1  0
  7  8  1  0
  8  9  2  0
  9 10  1  0
 10 11  2  0
 11 12  1  0
 12 13  2  0
 11 14  1  0
 14 15  2  0
 14 16  2  0
 14 17  1  0
  9 18  1  0
 18 19  1  0
 18 20  1  0
 18 21  1  0
  5 22  1  0
 22 23  2  0
 23 24  1  0
 24 25  2  0
  3 26  1  0
 26 27  1  0
 27 28  2  0
 27 29  1  0
  6  2  1  0
 25  4  1  0
 13  8  1  0
M  END
$$$$
