
     RDKit          3D

 29 31  0  0  0  0  0  0  0  0999 V2000
   -1.4882    1.8974   10.8768 C   0  0  0  0  0  0  0  0  0  0  0  0
   -1.0648    1.1990   12.1252 C   0  0  0  0  0  0  0  0  0  0  0  0
   -0.4501    1.8444   13.1697 C   0  0  0  0  0  0  0  0  0  0  0  0
   -0.2351    0.9264   14.1657 C   0  0  0  0  0  0  0  0  0  0  0  0
   -0.7333   -0.2660   13.6846 C   0  0  0  0  0  0  0  0  0  0  0  0
   -1.2398   -0.1289   12.4514 N   0  0  0  0  0  0  0  0  0  0  0  0
   -1.8951   -1.0694   11.5554 C   0  0  0  0  0  0  0  0  0  0  0  0
   -1.0366   -2.0361   10.8930 C   0  0  0  0  0  0  0  0  0  0  0  0
   -1.5752   -3.0863   10.1604 C   0  0  0  0  0  0  0  0  0  0  0  0
   -0.6831   -4.0365    9.6424 C   0  0  0  0  0  0  0  0  0  0  0  0
    0.6760   -3.9765    9.8196 C   0  0  0  0  0  0  0  0  0  0  0  0
    1.2026   -2.9342   10.5406 C   0  0  0  0  0  0  0  0  0  0  0  0
    0.3394   -1.9859   11.0622 C   0  0  0  0  0  0  0  0  0  0  0  0
    1.7487   -5.2007    9.1413 S   0  0  0  0  0  6  0  0  0  0  0  0
    3.0404   -4.5276    8.7734 O   0  0  0  0  0  0  0  0  0  0  0  0
    1.1546   -5.7813    7.8885 O   0  0  0  0  0  0  0  0  0  0  0  0
    2.0292   -6.4450   10.3606 C   0  0  0  0  0  0  0  0  0  0  0  0
   -2.9822   -3.2275    9.7939 C   0  0  0  0  0  0  0  0  0  0  0  0
   -3.8198   -2.8536   10.8568 F   0  0  0  0  0  0  0  0  0  0  0  0
   -3.4281   -4.3549    9.2481 F   0  0  0  0  0  0  0  0  0  0  0  0
   -3.2715   -2.2158    8.8340 F   0  0  0  0  0  0  0  0  0  0  0  0
   -0.6216   -1.2984   14.5228 N   0  0  0  0  0  0  0  0  0  0  0  0
   -0.0879   -1.2812   15.7442 C   0  0  0  0  0  0  0  0  0  0  0  0
    0.4257   -0.0854   16.2551 C   0  0  0  0  0  0  0  0  0  0  0  0
    0.3395    1.0143   15.4391 C   0  0  0  0  0  0  0  0  0  0  0  0
   -0.0662    3.2730   13.2769 C   0  0  0  0  0  0  0  0  0  0  0  0
    0.4610    3.5948   14.6436 C   0  0  0  0  0  0  0  0  0  0  0  0
   -0.1286    3.3047   15.6947 O   0  0  0  0  0  0  0  0  0  0  0  0
    1.6652    4.2456   14.6972 O   0  0  0  0  0  0  0  0  0  0  0  0
  1  2  1  0
  2  3  2  0
  3  4  1  0
  4  5  2  0
  5  6  1  0
  6  7  1  0
  7  8  1  0
  8  9  2  0
  9 10  1  0
 10 11  2  0
 11 12  1  0
 12 13  2  0
 11 14  1  0
 14 15  2  0
 14 16  2  0
 14 17  1  0
  9 18  1  0
 18 19  1  0
 18 20  1  0
 18 21  1  0
  5 22  1  0
 22 23  2  0
 23 24  1  0
 24 25  2  0
  3 26  1  0
 26 27  1  0
 27 28  2  0
 27 29  1  0
  6  2  1  0
 25  4  1  0
 13  8  1  0
M  END
$$$$
