
     RDKit          3D

 29 31  0  0  0  0  0  0  0  0999 V2000
   -0.6955   -0.6312   14.7413 C   0  0  0  0  0  0  0  0  0  0  0  0
   -0.8055    0.5492   13.8358 C   0  0  0  0  0  0  0  0  0  0  0  0
   -0.1927    1.7500   14.0971 C   0  0  0  0  0  0  0  0  0  0  0  0
   -0.4620    2.5975   13.0531 C   0  0  0  0  0  0  0  0  0  0  0  0
   -1.2433    1.8720   12.1787 C   0  0  0  0  0  0  0  0  0  0  0  0
   -1.4671    0.6298   12.6292 N   0  0  0  0  0  0  0  0  0  0  0  0
   -2.1893   -0.4986   12.0620 C   0  0  0  0  0  0  0  0  0  0  0  0
   -1.4011   -1.4564   11.3060 C   0  0  0  0  0  0  0  0  0  0  0  0
   -1.8695   -2.7436   11.0751 C   0  0  0  0  0  0  0  0  0  0  0  0
   -1.0040   -3.6398   10.4310 C   0  0  0  0  0  0  0  0  0  0  0  0
    0.2629   -3.3089   10.0216 C   0  0  0  0  0  0  0  0  0  0  0  0
    0.7186   -2.0344   10.2487 C   0  0  0  0  0  0  0  0  0  0  0  0
   -0.1192   -1.1342   10.8845 C   0  0  0  0  0  0  0  0  0  0  0  0
    1.3053   -4.4793    9.2135 S   0  0  0  0  0  6  0  0  0  0  0  0
    0.7920   -5.8534    9.5376 O   0  0  0  0  0  0  0  0  0  0  0  0
    2.7118   -4.3745    9.7335 O   0  0  0  0  0  0  0  0  0  0  0  0
    1.2362   -4.1915    7.4739 C   0  0  0  0  0  0  0  0  0  0  0  0
   -3.2253   -3.2121   11.3508 C   0  0  0  0  0  0  0  0  0  0  0  0
   -3.7266   -2.6386   12.5303 F   0  0  0  0  0  0  0  0  0  0  0  0
   -3.5085   -4.5110   11.3295 F   0  0  0  0  0  0  0  0  0  0  0  0
   -4.0792   -2.6344   10.3682 F   0  0  0  0  0  0  0  0  0  0  0  0
   -1.6110    2.5306   11.0777 N   0  0  0  0  0  0  0  0  0  0  0  0
   -1.3015    3.7872   10.7581 C   0  0  0  0  0  0  0  0  0  0  0  0
   -0.5119    4.5451   11.6282 C   0  0  0  0  0  0  0  0  0  0  0  0
   -0.1010    3.9220   12.7794 C   0  0  0  0  0  0  0  0  0  0  0  0
    0.6333    2.1313   15.2685 C   0  0  0  0  0  0  0  0  0  0  0  0
   -0.1503    2.9617   16.2409 C   0  0  0  0  0  0  0  0  0  0  0  0
   -1.0969    3.6929   15.9154 O   0  0  0  0  0  0  0  0  0  0  0  0
    0.2271    2.8836   17.5555 O   0  0  0  0  0  0  0  0  0  0  0  0
  1  2  1  0
  2  3  2  0
  3  4  1  0
  4  5  2  0
  5  6  1  0
  6  7  1  0
  7  8  1  0
  8  9  2  0
  9 10  1  0
 10 11  2  0
 11 12  1  0
 12 13  2  0
 11 14  1  0
 14 15  2  0
 14 16  2  0
 14 17  1  0
  9 18  1  0
 18 19  1  0
 18 20  1  0
 18 21  1  0
  5 22  1  0
 22 23  2  0
 23 24  1  0
 24 25  2  0
  3 26  1  0
 26 27  1  0
 27 28  2  0
 27 29  1  0
  6  2  1  0
 25  4  1  0
 13  8  1  0
M  END
$$$$
