
     RDKit          3D

 29 31  0  0  0  0  0  0  0  0999 V2000
   -2.7331   -3.0409   11.6671 C   0  0  0  0  0  0  0  0  0  0  0  0
   -1.7207   -2.0757   12.1858 C   0  0  0  0  0  0  0  0  0  0  0  0
   -2.0385   -0.7975   12.5742 C   0  0  0  0  0  0  0  0  0  0  0  0
   -0.8934   -0.1987   13.0336 C   0  0  0  0  0  0  0  0  0  0  0  0
    0.0983   -1.1481   12.9057 C   0  0  0  0  0  0  0  0  0  0  0  0
   -0.3754   -2.2926   12.3939 N   0  0  0  0  0  0  0  0  0  0  0  0
    0.2594   -3.5699   12.1072 C   0  0  0  0  0  0  0  0  0  0  0  0
    0.8177   -3.7297   10.7756 C   0  0  0  0  0  0  0  0  0  0  0  0
    1.2097   -4.9784   10.3102 C   0  0  0  0  0  0  0  0  0  0  0  0
    1.8378   -5.0324    9.0574 C   0  0  0  0  0  0  0  0  0  0  0  0
    2.0766   -3.9272    8.2804 C   0  0  0  0  0  0  0  0  0  0  0  0
    1.6831   -2.6967    8.7437 C   0  0  0  0  0  0  0  0  0  0  0  0
    1.0626   -2.6207    9.9788 C   0  0  0  0  0  0  0  0  0  0  0  0
    2.8692   -4.0581    6.7106 S   0  0  0  0  0  6  0  0  0  0  0  0
    2.2307   -5.1962    5.9664 O   0  0  0  0  0  0  0  0  0  0  0  0
    4.3276   -4.3779    6.8854 O   0  0  0  0  0  0  0  0  0  0  0  0
    2.6400   -2.5443    5.8335 C   0  0  0  0  0  0  0  0  0  0  0  0
    0.9280   -6.2523   10.9671 C   0  0  0  0  0  0  0  0  0  0  0  0
    2.0651   -7.0757   10.9788 F   0  0  0  0  0  0  0  0  0  0  0  0
   -0.1389   -6.9677   10.6241 F   0  0  0  0  0  0  0  0  0  0  0  0
    0.7578   -5.9824   12.3552 F   0  0  0  0  0  0  0  0  0  0  0  0
    1.3068   -0.7537   13.3121 N   0  0  0  0  0  0  0  0  0  0  0  0
    1.6311    0.4380   13.8136 C   0  0  0  0  0  0  0  0  0  0  0  0
    0.6445    1.4190   13.9523 C   0  0  0  0  0  0  0  0  0  0  0  0
   -0.6213    1.0729   13.5516 C   0  0  0  0  0  0  0  0  0  0  0  0
   -3.3585   -0.1219   12.5408 C   0  0  0  0  0  0  0  0  0  0  0  0
   -3.8372    0.2076   13.9234 C   0  0  0  0  0  0  0  0  0  0  0  0
   -3.4692   -0.3961   14.9415 O   0  0  0  0  0  0  0  0  0  0  0  0
   -4.7307    1.2405   14.0314 O   0  0  0  0  0  0  0  0  0  0  0  0
  1  2  1  0
  2  3  2  0
  3  4  1  0
  4  5  2  0
  5  6  1  0
  6  7  1  0
  7  8  1  0
  8  9  2  0
  9 10  1  0
 10 11  2  0
 11 12  1  0
 12 13  2  0
 11 14  1  0
 14 15  2  0
 14 16  2  0
 14 17  1  0
  9 18  1  0
 18 19  1  0
 18 20  1  0
 18 21  1  0
  5 22  1  0
 22 23  2  0
 23 24  1  0
 24 25  2  0
  3 26  1  0
 26 27  1  0
 27 28  2  0
 27 29  1  0
  6  2  1  0
 25  4  1  0
 13  8  1  0
M  END
$$$$
