
     RDKit          3D

 29 31  0  0  0  0  0  0  0  0999 V2000
    1.9338   -0.3864   12.5371 C   0  0  0  0  0  0  0  0  0  0  0  0
    0.4640   -0.6315   12.4632 C   0  0  0  0  0  0  0  0  0  0  0  0
   -0.4070   -0.2491   13.4535 C   0  0  0  0  0  0  0  0  0  0  0  0
   -1.6751   -0.5852   13.0534 C   0  0  0  0  0  0  0  0  0  0  0  0
   -1.5296   -1.1713   11.8139 C   0  0  0  0  0  0  0  0  0  0  0  0
   -0.2450   -1.2130   11.4340 N   0  0  0  0  0  0  0  0  0  0  0  0
    0.3989   -1.6942   10.2214 C   0  0  0  0  0  0  0  0  0  0  0  0
    0.7626   -3.1004   10.1972 C   0  0  0  0  0  0  0  0  0  0  0  0
    1.8272   -3.5502    9.4264 C   0  0  0  0  0  0  0  0  0  0  0  0
    2.0462   -4.9344    9.3729 C   0  0  0  0  0  0  0  0  0  0  0  0
    1.2723   -5.8510   10.0386 C   0  0  0  0  0  0  0  0  0  0  0  0
    0.2246   -5.4003   10.8021 C   0  0  0  0  0  0  0  0  0  0  0  0
   -0.0102   -4.0376   10.8674 C   0  0  0  0  0  0  0  0  0  0  0  0
    1.5983   -7.5808    9.9351 S   0  0  0  0  0  6  0  0  0  0  0  0
    1.9392   -7.9000    8.5072 O   0  0  0  0  0  0  0  0  0  0  0  0
    0.3727   -8.3678   10.3068 O   0  0  0  0  0  0  0  0  0  0  0  0
    2.9580   -7.9642   10.9923 C   0  0  0  0  0  0  0  0  0  0  0  0
    2.8025   -2.6971    8.7520 C   0  0  0  0  0  0  0  0  0  0  0  0
    4.0014   -2.6297    9.4796 F   0  0  0  0  0  0  0  0  0  0  0  0
    2.4627   -1.4809    8.3360 F   0  0  0  0  0  0  0  0  0  0  0  0
    3.2213   -3.3832    7.5763 F   0  0  0  0  0  0  0  0  0  0  0  0
   -2.6696   -1.5685   11.2449 N   0  0  0  0  0  0  0  0  0  0  0  0
   -3.8972   -1.4539   11.7517 C   0  0  0  0  0  0  0  0  0  0  0  0
   -4.0721   -0.8648   13.0076 C   0  0  0  0  0  0  0  0  0  0  0  0
   -2.9352   -0.4346   13.6440 C   0  0  0  0  0  0  0  0  0  0  0  0
   -0.1058    0.4186   14.7431 C   0  0  0  0  0  0  0  0  0  0  0  0
   -0.3032    1.9023   14.6480 C   0  0  0  0  0  0  0  0  0  0  0  0
   -0.4092    2.5153   13.5759 O   0  0  0  0  0  0  0  0  0  0  0  0
   -0.3664    2.5882   15.8322 O   0  0  0  0  0  0  0  0  0  0  0  0
  1  2  1  0
  2  3  2  0
  3  4  1  0
  4  5  2  0
  5  6  1  0
  6  7  1  0
  7  8  1  0
  8  9  2  0
  9 10  1  0
 10 11  2  0
 11 12  1  0
 12 13  2  0
 11 14  1  0
 14 15  2  0
 14 16  2  0
 14 17  1  0
  9 18  1  0
 18 19  1  0
 18 20  1  0
 18 21  1  0
  5 22  1  0
 22 23  2  0
 23 24  1  0
 24 25  2  0
  3 26  1  0
 26 27  1  0
 27 28  2  0
 27 29  1  0
  6  2  1  0
 25  4  1  0
 13  8  1  0
M  END
$$$$
