
     RDKit          3D

 29 31  0  0  0  0  0  0  0  0999 V2000
   -0.2794    1.1394   10.6000 C   0  0  0  0  0  0  0  0  0  0  0  0
    0.5085    0.5515   11.7221 C   0  0  0  0  0  0  0  0  0  0  0  0
    0.5791    1.1274   12.9666 C   0  0  0  0  0  0  0  0  0  0  0  0
    1.3448    0.3163   13.7645 C   0  0  0  0  0  0  0  0  0  0  0  0
    1.7210   -0.7420   12.9647 C   0  0  0  0  0  0  0  0  0  0  0  0
    1.2295   -0.6235   11.7236 N   0  0  0  0  0  0  0  0  0  0  0  0
    1.3187   -1.4821   10.5525 C   0  0  0  0  0  0  0  0  0  0  0  0
    0.7552   -2.8146   10.6836 C   0  0  0  0  0  0  0  0  0  0  0  0
    1.1486   -3.8434    9.8372 C   0  0  0  0  0  0  0  0  0  0  0  0
    0.4800   -5.0703    9.9582 C   0  0  0  0  0  0  0  0  0  0  0  0
   -0.5266   -5.2997   10.8617 C   0  0  0  0  0  0  0  0  0  0  0  0
   -0.9080   -4.2806   11.6982 C   0  0  0  0  0  0  0  0  0  0  0  0
   -0.2620   -3.0607   11.5944 C   0  0  0  0  0  0  0  0  0  0  0  0
   -1.3293   -6.8661   10.9691 S   0  0  0  0  0  6  0  0  0  0  0  0
   -1.2784   -7.3117   12.4029 O   0  0  0  0  0  0  0  0  0  0  0  0
   -0.6002   -7.8860   10.1398 O   0  0  0  0  0  0  0  0  0  0  0  0
   -3.0030   -6.6810   10.4418 C   0  0  0  0  0  0  0  0  0  0  0  0
    2.2714   -3.7883    8.9045 C   0  0  0  0  0  0  0  0  0  0  0  0
    3.2890   -4.6765    9.2876 F   0  0  0  0  0  0  0  0  0  0  0  0
    2.8041   -2.6207    8.5571 F   0  0  0  0  0  0  0  0  0  0  0  0
    1.8321   -4.3696    7.6807 F   0  0  0  0  0  0  0  0  0  0  0  0
    2.4788   -1.6592   13.5695 N   0  0  0  0  0  0  0  0  0  0  0  0
    2.8922   -1.6441   14.8367 C   0  0  0  0  0  0  0  0  0  0  0  0
    2.5260   -0.5815   15.6684 C   0  0  0  0  0  0  0  0  0  0  0  0
    1.7449    0.3949   15.1036 C   0  0  0  0  0  0  0  0  0  0  0  0
   -0.0408    2.3896   13.4381 C   0  0  0  0  0  0  0  0  0  0  0  0
   -0.5443    2.2575   14.8446 C   0  0  0  0  0  0  0  0  0  0  0  0
   -1.2727    1.3319   15.2309 O   0  0  0  0  0  0  0  0  0  0  0  0
   -0.1576    3.2315   15.7269 O   0  0  0  0  0  0  0  0  0  0  0  0
  1  2  1  0
  2  3  2  0
  3  4  1  0
  4  5  2  0
  5  6  1  0
  6  7  1  0
  7  8  1  0
  8  9  2  0
  9 10  1  0
 10 11  2  0
 11 12  1  0
 12 13  2  0
 11 14  1  0
 14 15  2  0
 14 16  2  0
 14 17  1  0
  9 18  1  0
 18 19  1  0
 18 20  1  0
 18 21  1  0
  5 22  1  0
 22 23  2  0
 23 24  1  0
 24 25  2  0
  3 26  1  0
 26 27  1  0
 27 28  2  0
 27 29  1  0
  6  2  1  0
 25  4  1  0
 13  8  1  0
M  END
$$$$
