
     RDKit          3D

 29 31  0  0  0  0  0  0  0  0999 V2000
   -2.0541   -2.6497   13.2231 C   0  0  0  0  0  0  0  0  0  0  0  0
   -1.7366   -1.2324   12.8825 C   0  0  0  0  0  0  0  0  0  0  0  0
   -2.6713   -0.2273   12.9242 C   0  0  0  0  0  0  0  0  0  0  0  0
   -2.0435    0.9471   12.5963 C   0  0  0  0  0  0  0  0  0  0  0  0
   -0.7271    0.6107   12.3614 C   0  0  0  0  0  0  0  0  0  0  0  0
   -0.5149   -0.7022   12.5263 N   0  0  0  0  0  0  0  0  0  0  0  0
    0.6866   -1.5166   12.4273 C   0  0  0  0  0  0  0  0  0  0  0  0
    0.9559   -2.1164   11.1320 C   0  0  0  0  0  0  0  0  0  0  0  0
    1.6544   -3.3127   11.0297 C   0  0  0  0  0  0  0  0  0  0  0  0
    1.9668   -3.7699    9.7411 C   0  0  0  0  0  0  0  0  0  0  0  0
    1.6172   -3.1029    8.5943 C   0  0  0  0  0  0  0  0  0  0  0  0
    0.9233   -1.9237    8.7016 C   0  0  0  0  0  0  0  0  0  0  0  0
    0.6061   -1.4536    9.9645 C   0  0  0  0  0  0  0  0  0  0  0  0
    2.0361   -3.7291    6.9999 S   0  0  0  0  0  6  0  0  0  0  0  0
    2.0639   -5.2285    7.0874 O   0  0  0  0  0  0  0  0  0  0  0  0
    3.4071   -3.2620    6.5976 O   0  0  0  0  0  0  0  0  0  0  0  0
    0.8094   -3.2031    5.8457 C   0  0  0  0  0  0  0  0  0  0  0  0
    1.9988   -4.1889   12.1466 C   0  0  0  0  0  0  0  0  0  0  0  0
    2.9652   -5.1338   11.7666 F   0  0  0  0  0  0  0  0  0  0  0  0
    1.0454   -4.7848   12.8564 F   0  0  0  0  0  0  0  0  0  0  0  0
    2.7227   -3.4050   13.0900 F   0  0  0  0  0  0  0  0  0  0  0  0
    0.0616    1.6346   12.0287 N   0  0  0  0  0  0  0  0  0  0  0  0
   -0.2976    2.9124   11.9062 C   0  0  0  0  0  0  0  0  0  0  0  0
   -1.6267    3.2798   12.1374 C   0  0  0  0  0  0  0  0  0  0  0  0
   -2.4880    2.2697   12.4843 C   0  0  0  0  0  0  0  0  0  0  0  0
   -4.1125   -0.3181   13.2624 C   0  0  0  0  0  0  0  0  0  0  0  0
   -4.8193   -1.3013   12.3775 C   0  0  0  0  0  0  0  0  0  0  0  0
   -4.4890   -1.5341   11.2057 O   0  0  0  0  0  0  0  0  0  0  0  0
   -5.8855   -1.9629   12.9272 O   0  0  0  0  0  0  0  0  0  0  0  0
  1  2  1  0
  2  3  2  0
  3  4  1  0
  4  5  2  0
  5  6  1  0
  6  7  1  0
  7  8  1  0
  8  9  2  0
  9 10  1  0
 10 11  2  0
 11 12  1  0
 12 13  2  0
 11 14  1  0
 14 15  2  0
 14 16  2  0
 14 17  1  0
  9 18  1  0
 18 19  1  0
 18 20  1  0
 18 21  1  0
  5 22  1  0
 22 23  2  0
 23 24  1  0
 24 25  2  0
  3 26  1  0
 26 27  1  0
 27 28  2  0
 27 29  1  0
  6  2  1  0
 25  4  1  0
 13  8  1  0
M  END
$$$$
