
     RDKit          3D

 29 31  0  0  0  0  0  0  0  0999 V2000
   -1.9176   -3.1420   12.0258 C   0  0  0  0  0  0  0  0  0  0  0  0
   -0.9059   -2.0500   12.1239 C   0  0  0  0  0  0  0  0  0  0  0  0
    0.4184   -2.2824   12.4024 C   0  0  0  0  0  0  0  0  0  0  0  0
    1.0728   -1.0773   12.3784 C   0  0  0  0  0  0  0  0  0  0  0  0
    0.1082   -0.1376   12.0825 C   0  0  0  0  0  0  0  0  0  0  0  0
   -1.0983   -0.6996   11.9250 N   0  0  0  0  0  0  0  0  0  0  0  0
   -2.3970   -0.1420   11.5799 C   0  0  0  0  0  0  0  0  0  0  0  0
   -2.9315    0.8600   12.4858 C   0  0  0  0  0  0  0  0  0  0  0  0
   -4.2667    1.2385   12.4254 C   0  0  0  0  0  0  0  0  0  0  0  0
   -4.6788    2.2876   13.2600 C   0  0  0  0  0  0  0  0  0  0  0  0
   -3.8388    2.9451   14.1227 C   0  0  0  0  0  0  0  0  0  0  0  0
   -2.5217    2.5637   14.1811 C   0  0  0  0  0  0  0  0  0  0  0  0
   -2.0936    1.5312   13.3644 C   0  0  0  0  0  0  0  0  0  0  0  0
   -4.4158    4.2566   15.1506 S   0  0  0  0  0  6  0  0  0  0  0  0
   -3.8090    5.5357   14.6484 O   0  0  0  0  0  0  0  0  0  0  0  0
   -3.9587    4.0509   16.5678 O   0  0  0  0  0  0  0  0  0  0  0  0
   -6.1757    4.3269   15.0427 C   0  0  0  0  0  0  0  0  0  0  0  0
   -5.3015    0.5664   11.6436 C   0  0  0  0  0  0  0  0  0  0  0  0
   -6.3282    1.4581   11.2941 F   0  0  0  0  0  0  0  0  0  0  0  0
   -5.8283   -0.5797   12.0641 F   0  0  0  0  0  0  0  0  0  0  0  0
   -4.7395    0.2662   10.3697 F   0  0  0  0  0  0  0  0  0  0  0  0
    0.5541    1.1180   12.0070 N   0  0  0  0  0  0  0  0  0  0  0  0
    1.8083    1.5321   12.1871 C   0  0  0  0  0  0  0  0  0  0  0  0
    2.8052    0.5996   12.4896 C   0  0  0  0  0  0  0  0  0  0  0  0
    2.4085   -0.7107   12.5805 C   0  0  0  0  0  0  0  0  0  0  0  0
    1.0924   -3.5741   12.6798 C   0  0  0  0  0  0  0  0  0  0  0  0
    1.6293   -4.1900   11.4222 C   0  0  0  0  0  0  0  0  0  0  0  0
    1.2998   -3.8281   10.2833 O   0  0  0  0  0  0  0  0  0  0  0  0
    2.5339   -5.2072   11.5768 O   0  0  0  0  0  0  0  0  0  0  0  0
  1  2  1  0
  2  3  2  0
  3  4  1  0
  4  5  2  0
  5  6  1  0
  6  7  1  0
  7  8  1  0
  8  9  2  0
  9 10  1  0
 10 11  2  0
 11 12  1  0
 12 13  2  0
 11 14  1  0
 14 15  2  0
 14 16  2  0
 14 17  1  0
  9 18  1  0
 18 19  1  0
 18 20  1  0
 18 21  1  0
  5 22  1  0
 22 23  2  0
 23 24  1  0
 24 25  2  0
  3 26  1  0
 26 27  1  0
 27 28  2  0
 27 29  1  0
  6  2  1  0
 25  4  1  0
 13  8  1  0
M  END
$$$$
