
     RDKit          3D

 29 31  0  0  0  0  0  0  0  0999 V2000
   -0.5418   -0.2921   14.8172 C   0  0  0  0  0  0  0  0  0  0  0  0
   -0.6905    0.8870   13.9155 C   0  0  0  0  0  0  0  0  0  0  0  0
   -0.0477    2.0804   14.1352 C   0  0  0  0  0  0  0  0  0  0  0  0
   -0.3681    2.9283   13.1059 C   0  0  0  0  0  0  0  0  0  0  0  0
   -1.2096    2.2105   12.2826 C   0  0  0  0  0  0  0  0  0  0  0  0
   -1.4221    0.9727   12.7503 N   0  0  0  0  0  0  0  0  0  0  0  0
   -2.1915   -0.1478   12.2316 C   0  0  0  0  0  0  0  0  0  0  0  0
   -1.4439   -1.1726   11.5237 C   0  0  0  0  0  0  0  0  0  0  0  0
   -1.9696   -2.4459   11.3451 C   0  0  0  0  0  0  0  0  0  0  0  0
   -1.1427   -3.4078   10.7469 C   0  0  0  0  0  0  0  0  0  0  0  0
    0.1403   -3.1532   10.3330 C   0  0  0  0  0  0  0  0  0  0  0  0
    0.6527   -1.8921   10.5080 C   0  0  0  0  0  0  0  0  0  0  0  0
   -0.1463   -0.9278   11.0981 C   0  0  0  0  0  0  0  0  0  0  0  0
    1.1323   -4.4039    9.5840 S   0  0  0  0  0  6  0  0  0  0  0  0
    0.2637   -5.1670    8.6247 O   0  0  0  0  0  0  0  0  0  0  0  0
    1.6334   -5.3672   10.6235 O   0  0  0  0  0  0  0  0  0  0  0  0
    2.4647   -3.6296    8.7246 C   0  0  0  0  0  0  0  0  0  0  0  0
   -3.3470   -2.8397   11.6309 C   0  0  0  0  0  0  0  0  0  0  0  0
   -3.6036   -4.1426   11.1752 F   0  0  0  0  0  0  0  0  0  0  0  0
   -4.3593   -2.0431   11.3017 F   0  0  0  0  0  0  0  0  0  0  0  0
   -3.4543   -3.0052   13.0415 F   0  0  0  0  0  0  0  0  0  0  0  0
   -1.6341    2.8706   11.2032 N   0  0  0  0  0  0  0  0  0  0  0  0
   -1.3280    4.1221   10.8609 C   0  0  0  0  0  0  0  0  0  0  0  0
   -0.4781    4.8722   11.6793 C   0  0  0  0  0  0  0  0  0  0  0  0
   -0.0071    4.2471   12.8062 C   0  0  0  0  0  0  0  0  0  0  0  0
    0.8517    2.4543   15.2536 C   0  0  0  0  0  0  0  0  0  0  0  0
    0.3234    3.6398   16.0050 C   0  0  0  0  0  0  0  0  0  0  0  0
   -0.8832    3.8565   16.1888 O   0  0  0  0  0  0  0  0  0  0  0  0
    1.2542    4.5124   16.5040 O   0  0  0  0  0  0  0  0  0  0  0  0
  1  2  1  0
  2  3  2  0
  3  4  1  0
  4  5  2  0
  5  6  1  0
  6  7  1  0
  7  8  1  0
  8  9  2  0
  9 10  1  0
 10 11  2  0
 11 12  1  0
 12 13  2  0
 11 14  1  0
 14 15  2  0
 14 16  2  0
 14 17  1  0
  9 18  1  0
 18 19  1  0
 18 20  1  0
 18 21  1  0
  5 22  1  0
 22 23  2  0
 23 24  1  0
 24 25  2  0
  3 26  1  0
 26 27  1  0
 27 28  2  0
 27 29  1  0
  6  2  1  0
 25  4  1  0
 13  8  1  0
M  END
$$$$
