
     RDKit          3D

 29 31  0  0  0  0  0  0  0  0999 V2000
    0.7890    1.7134   11.8745 C   0  0  0  0  0  0  0  0  0  0  0  0
    0.0016    0.7768   12.7280 C   0  0  0  0  0  0  0  0  0  0  0  0
   -0.0897    0.9076   14.0919 C   0  0  0  0  0  0  0  0  0  0  0  0
   -0.9152   -0.0840   14.5568 C   0  0  0  0  0  0  0  0  0  0  0  0
   -1.3032   -0.7966   13.4419 C   0  0  0  0  0  0  0  0  0  0  0  0
   -0.7614   -0.2973   12.3224 N   0  0  0  0  0  0  0  0  0  0  0  0
   -0.8922   -0.6734   10.9231 C   0  0  0  0  0  0  0  0  0  0  0  0
   -0.2635   -1.9219   10.5280 C   0  0  0  0  0  0  0  0  0  0  0  0
   -0.7914   -2.6944    9.5012 C   0  0  0  0  0  0  0  0  0  0  0  0
   -0.1894   -3.9365    9.2527 C   0  0  0  0  0  0  0  0  0  0  0  0
    0.8820   -4.4157    9.9630 C   0  0  0  0  0  0  0  0  0  0  0  0
    1.4020   -3.6461   10.9734 C   0  0  0  0  0  0  0  0  0  0  0  0
    0.8217   -2.4170   11.2364 C   0  0  0  0  0  0  0  0  0  0  0  0
    1.5987   -5.9860    9.6024 S   0  0  0  0  0  6  0  0  0  0  0  0
    2.9800   -6.0077   10.1929 O   0  0  0  0  0  0  0  0  0  0  0  0
    1.7261   -6.1746    8.1165 O   0  0  0  0  0  0  0  0  0  0  0  0
    0.5989   -7.2444   10.3305 C   0  0  0  0  0  0  0  0  0  0  0  0
   -1.8529   -2.2766    8.5888 C   0  0  0  0  0  0  0  0  0  0  0  0
   -3.1190   -2.5607    9.1249 F   0  0  0  0  0  0  0  0  0  0  0  0
   -1.8201   -2.6300    7.3075 F   0  0  0  0  0  0  0  0  0  0  0  0
   -1.8621   -0.8524    8.5764 F   0  0  0  0  0  0  0  0  0  0  0  0
   -2.1273   -1.8169   13.6883 N   0  0  0  0  0  0  0  0  0  0  0  0
   -2.5936   -2.1975   14.8777 C   0  0  0  0  0  0  0  0  0  0  0  0
   -2.2143   -1.4929   16.0243 C   0  0  0  0  0  0  0  0  0  0  0  0
   -1.3668   -0.4305   15.8357 C   0  0  0  0  0  0  0  0  0  0  0  0
    0.5511    1.9173   14.9692 C   0  0  0  0  0  0  0  0  0  0  0  0
   -0.4718    2.7880   15.6359 C   0  0  0  0  0  0  0  0  0  0  0  0
   -1.4362    3.2940   15.0440 O   0  0  0  0  0  0  0  0  0  0  0  0
   -0.3013    3.0160   16.9760 O   0  0  0  0  0  0  0  0  0  0  0  0
  1  2  1  0
  2  3  2  0
  3  4  1  0
  4  5  2  0
  5  6  1  0
  6  7  1  0
  7  8  1  0
  8  9  2  0
  9 10  1  0
 10 11  2  0
 11 12  1  0
 12 13  2  0
 11 14  1  0
 14 15  2  0
 14 16  2  0
 14 17  1  0
  9 18  1  0
 18 19  1  0
 18 20  1  0
 18 21  1  0
  5 22  1  0
 22 23  2  0
 23 24  1  0
 24 25  2  0
  3 26  1  0
 26 27  1  0
 27 28  2  0
 27 29  1  0
  6  2  1  0
 25  4  1  0
 13  8  1  0
M  END
$$$$
