
     RDKit          3D

 43 46  0  0  0  0  0  0  0  0999 V2000
    2.6424   -4.7095    9.4856 C   0  0  0  0  0  0  0  0  0  0  0  0
    1.6978   -4.0062   10.4277 C   0  0  0  0  0  0  0  0  0  0  0  0
    0.8310   -3.0963   10.0204 C   0  0  0  0  0  0  0  0  0  0  0  0
   -0.1120   -2.3833   10.9071 C   0  0  0  0  0  0  0  0  0  0  0  0
   -0.0176   -2.7700   12.3349 C   0  0  0  0  0  0  0  0  0  0  0  0
    0.8524   -3.6810   12.7335 C   0  0  0  0  0  0  0  0  0  0  0  0
    1.7236   -4.3191   11.8132 N   0  0  0  0  0  0  0  0  0  0  0  0
    0.9002   -4.0268   14.1895 C   0  0  0  0  0  0  0  0  0  0  0  0
   -0.9104   -2.1223   13.3228 C   0  0  0  0  0  0  0  0  0  0  0  0
   -1.8667   -1.4421   12.8750 O   0  0  0  0  0  0  0  0  0  0  0  0
   -0.7766   -2.2054   14.6703 O   0  0  0  0  0  0  0  0  0  0  0  0
   -1.3800   -3.1452   15.5071 C   0  0  0  0  0  0  0  0  0  0  0  0
    0.0008   -0.9024   10.7444 C   0  0  0  0  0  0  0  0  0  0  0  0
   -0.2919   -0.0521   11.7692 C   0  0  0  0  0  0  0  0  0  0  0  0
   -0.2068    1.3461   11.6649 C   0  0  0  0  0  0  0  0  0  0  0  0
    0.1915    1.8812   10.4702 C   0  0  0  0  0  0  0  0  0  0  0  0
    0.4908    1.0057    9.4217 C   0  0  0  0  0  0  0  0  0  0  0  0
    0.3992   -0.3517    9.5511 C   0  0  0  0  0  0  0  0  0  0  0  0
   -0.5323    2.1047   12.7904 N   0  0  0  0  0  0  0  0  0  0  0  0
   -0.6287    3.5191   12.8412 C   0  0  0  0  0  0  0  0  0  0  0  0
   -0.4355    4.2282   11.8338 O   0  0  0  0  0  0  0  0  0  0  0  0
   -0.9529    4.1998   14.0517 N   0  0  0  0  0  0  0  0  0  0  0  0
    0.0141    4.8903   14.8510 C   0  0  0  0  0  0  0  0  0  0  0  0
   -0.3901    4.8856   16.3023 C   0  0  0  0  0  0  0  0  0  0  0  0
    0.8056    4.6705   17.2097 C   0  0  0  0  0  0  0  0  0  0  0  0
    1.0066    5.6196   18.2080 N   0  0  0  0  0  0  0  0  0  0  0  0
    0.0426    6.5881   18.5018 C   0  0  0  0  0  0  0  0  0  0  0  0
    0.1956    7.1447   19.8925 C   0  0  0  0  0  0  0  0  0  0  0  0
    0.6878    6.1729   20.8958 C   0  0  0  0  0  0  0  0  0  0  0  0
    1.7975    5.2856   20.4198 C   0  0  0  0  0  0  0  0  0  0  0  0
    2.1836    5.5983   18.9848 C   0  0  0  0  0  0  0  0  0  0  0  0
    1.2184    6.9396   22.0691 C   0  0  0  0  0  0  0  0  0  0  0  0
    2.1099    7.9826   21.9341 C   0  0  0  0  0  0  0  0  0  0  0  0
    2.5615    8.6491   23.0500 C   0  0  0  0  0  0  0  0  0  0  0  0
    2.1581    8.3188   24.3266 C   0  0  0  0  0  0  0  0  0  0  0  0
    1.2758    7.2871   24.4666 C   0  0  0  0  0  0  0  0  0  0  0  0
    0.8121    6.6057   23.3449 C   0  0  0  0  0  0  0  0  0  0  0  0
    3.4549    9.6948   22.9175 O   0  0  0  0  0  0  0  0  0  0  0  0
    4.6760    9.6418   23.6252 C   0  0  0  0  0  0  0  0  0  0  0  0
    0.7735   -2.7458    8.5906 C   0  0  0  0  0  0  0  0  0  0  0  0
    0.3455   -1.6075    8.2789 O   0  0  0  0  0  0  0  0  0  0  0  0
    1.1532   -3.5711    7.5698 O   0  0  0  0  0  0  0  0  0  0  0  0
    0.2452   -4.3344    6.7944 C   0  0  0  0  0  0  0  0  0  0  0  0
  1  2  1  0
  2  3  2  0
  3  4  1  0
  4  5  1  0
  5  6  2  0
  6  7  1  0
  6  8  1  0
  5  9  1  0
  9 10  2  0
  9 11  1  0
 11 12  1  0
  4 13  1  0
 13 14  2  0
 14 15  1  0
 15 16  2  0
 16 17  1  0
 17 18  2  0
 15 19  1  0
 19 20  1  0
 20 21  2  0
 20 22  1  0
 22 23  1  0
 23 24  1  0
 24 25  1  0
 25 26  1  0
 26 27  1  0
 27 28  1  0
 28 29  1  0
 29 30  1  0
 30 31  1  0
 29 32  1  0
 32 33  2  0
 33 34  1  0
 34 35  2  0
 35 36  1  0
 36 37  2  0
 34 38  1  0
 38 39  1  0
  3 40  1  0
 40 41  2  0
 40 42  1  0
 42 43  1  0
  7  2  1  0
 18 13  1  0
 31 26  1  0
 37 32  1  0
M  END
$$$$
