
     RDKit          3D

 43 46  0  0  0  0  0  0  0  0999 V2000
    4.8648   -0.4706    8.6595 C   0  0  0  0  0  0  0  0  0  0  0  0
    3.9307   -1.5845    9.0607 C   0  0  0  0  0  0  0  0  0  0  0  0
    2.6757   -1.6440    8.6527 C   0  0  0  0  0  0  0  0  0  0  0  0
    1.7266   -2.7155    9.0202 C   0  0  0  0  0  0  0  0  0  0  0  0
    2.2959   -3.7562    9.9089 C   0  0  0  0  0  0  0  0  0  0  0  0
    3.5524   -3.6887   10.3122 C   0  0  0  0  0  0  0  0  0  0  0  0
    4.3979   -2.6224    9.9108 N   0  0  0  0  0  0  0  0  0  0  0  0
    4.0679   -4.7700   11.2105 C   0  0  0  0  0  0  0  0  0  0  0  0
    1.4408   -4.8820   10.3489 C   0  0  0  0  0  0  0  0  0  0  0  0
    1.9869   -6.0069   10.4679 O   0  0  0  0  0  0  0  0  0  0  0  0
    0.1170   -4.7943   10.6324 O   0  0  0  0  0  0  0  0  0  0  0  0
   -0.7355   -5.8533   10.9474 C   0  0  0  0  0  0  0  0  0  0  0  0
    0.4656   -2.1540    9.5920 C   0  0  0  0  0  0  0  0  0  0  0  0
    0.4914   -1.2206   10.5854 C   0  0  0  0  0  0  0  0  0  0  0  0
   -0.6649   -0.6665   11.1590 C   0  0  0  0  0  0  0  0  0  0  0  0
   -1.8811   -1.0874   10.6943 C   0  0  0  0  0  0  0  0  0  0  0  0
   -1.9033   -2.0447    9.6753 C   0  0  0  0  0  0  0  0  0  0  0  0
   -0.7619   -2.5672    9.1351 C   0  0  0  0  0  0  0  0  0  0  0  0
   -0.5009    0.2833   12.1685 N   0  0  0  0  0  0  0  0  0  0  0  0
   -1.2612    0.3678   13.3631 C   0  0  0  0  0  0  0  0  0  0  0  0
   -2.2441   -0.3708   13.5710 O   0  0  0  0  0  0  0  0  0  0  0  0
   -0.9357    1.3052   14.3875 N   0  0  0  0  0  0  0  0  0  0  0  0
   -1.1083    2.7196   14.2453 C   0  0  0  0  0  0  0  0  0  0  0  0
   -1.3635    3.3644   15.5828 C   0  0  0  0  0  0  0  0  0  0  0  0
   -2.5546    4.3013   15.5279 C   0  0  0  0  0  0  0  0  0  0  0  0
   -2.8247    5.0309   16.6822 N   0  0  0  0  0  0  0  0  0  0  0  0
   -1.9197    5.0786   17.7464 C   0  0  0  0  0  0  0  0  0  0  0  0
   -2.1279    6.2863   18.6213 C   0  0  0  0  0  0  0  0  0  0  0  0
   -2.5856    7.4977   17.9028 C   0  0  0  0  0  0  0  0  0  0  0  0
   -3.6370    7.2528   16.8637 C   0  0  0  0  0  0  0  0  0  0  0  0
   -4.0129    5.7834   16.7878 C   0  0  0  0  0  0  0  0  0  0  0  0
   -3.1781    8.4409   18.9055 C   0  0  0  0  0  0  0  0  0  0  0  0
   -2.9503    8.3251   20.2603 C   0  0  0  0  0  0  0  0  0  0  0  0
   -3.5225    9.2226   21.1322 C   0  0  0  0  0  0  0  0  0  0  0  0
   -4.3314   10.2564   20.7096 C   0  0  0  0  0  0  0  0  0  0  0  0
   -4.5606   10.3761   19.3697 C   0  0  0  0  0  0  0  0  0  0  0  0
   -3.9870    9.4741   18.4782 C   0  0  0  0  0  0  0  0  0  0  0  0
   -3.2958    9.1090   22.4905 O   0  0  0  0  0  0  0  0  0  0  0  0
   -3.6318   10.1934   23.3307 C   0  0  0  0  0  0  0  0  0  0  0  0
    2.1549   -0.5865    7.7690 C   0  0  0  0  0  0  0  0  0  0  0  0
    1.2937   -0.9042    6.9126 O   0  0  0  0  0  0  0  0  0  0  0  0
    2.5404    0.7239    7.8103 O   0  0  0  0  0  0  0  0  0  0  0  0
    2.9510    1.4607    6.6715 C   0  0  0  0  0  0  0  0  0  0  0  0
  1  2  1  0
  2  3  2  0
  3  4  1  0
  4  5  1  0
  5  6  2  0
  6  7  1  0
  6  8  1  0
  5  9  1  0
  9 10  2  0
  9 11  1  0
 11 12  1  0
  4 13  1  0
 13 14  2  0
 14 15  1  0
 15 16  2  0
 16 17  1  0
 17 18  2  0
 15 19  1  0
 19 20  1  0
 20 21  2  0
 20 22  1  0
 22 23  1  0
 23 24  1  0
 24 25  1  0
 25 26  1  0
 26 27  1  0
 27 28  1  0
 28 29  1  0
 29 30  1  0
 30 31  1  0
 29 32  1  0
 32 33  2  0
 33 34  1  0
 34 35  2  0
 35 36  1  0
 36 37  2  0
 34 38  1  0
 38 39  1  0
  3 40  1  0
 40 41  2  0
 40 42  1  0
 42 43  1  0
  7  2  1  0
 18 13  1  0
 31 26  1  0
 37 32  1  0
M  END
$$$$
