
     RDKit          3D

 43 46  0  0  0  0  0  0  0  0999 V2000
    3.4960   -1.9647   10.7055 C   0  0  0  0  0  0  0  0  0  0  0  0
    2.0202   -2.1231   10.9726 C   0  0  0  0  0  0  0  0  0  0  0  0
    1.1164   -1.2824   10.5019 C   0  0  0  0  0  0  0  0  0  0  0  0
   -0.3377   -1.3991   10.7382 C   0  0  0  0  0  0  0  0  0  0  0  0
   -0.7294   -2.5631   11.5680 C   0  0  0  0  0  0  0  0  0  0  0  0
    0.1814   -3.3989   12.0347 C   0  0  0  0  0  0  0  0  0  0  0  0
    1.5608   -3.2131   11.7594 N   0  0  0  0  0  0  0  0  0  0  0  0
   -0.2778   -4.5548   12.8684 C   0  0  0  0  0  0  0  0  0  0  0  0
   -2.1603   -2.7859   11.8765 C   0  0  0  0  0  0  0  0  0  0  0  0
   -2.4892   -3.9259   12.2890 O   0  0  0  0  0  0  0  0  0  0  0  0
   -3.1416   -1.8579   11.7486 O   0  0  0  0  0  0  0  0  0  0  0  0
   -4.1599   -1.8540   10.7943 C   0  0  0  0  0  0  0  0  0  0  0  0
   -0.9033   -0.1318   11.2917 C   0  0  0  0  0  0  0  0  0  0  0  0
   -0.5923    0.2938   12.5491 C   0  0  0  0  0  0  0  0  0  0  0  0
   -1.1013    1.4737   13.1164 C   0  0  0  0  0  0  0  0  0  0  0  0
   -1.9546    2.2351   12.3652 C   0  0  0  0  0  0  0  0  0  0  0  0
   -2.2710    1.7952   11.0760 C   0  0  0  0  0  0  0  0  0  0  0  0
   -1.7608    0.6421   10.5490 C   0  0  0  0  0  0  0  0  0  0  0  0
   -0.7020    1.7982   14.4138 N   0  0  0  0  0  0  0  0  0  0  0  0
   -1.1043    2.9445   15.1461 C   0  0  0  0  0  0  0  0  0  0  0  0
   -1.7048    3.8938   14.6046 O   0  0  0  0  0  0  0  0  0  0  0  0
   -0.8404    3.0660   16.5424 N   0  0  0  0  0  0  0  0  0  0  0  0
    0.0168    4.0695   17.0981 C   0  0  0  0  0  0  0  0  0  0  0  0
    1.4339    3.5676   17.1970 C   0  0  0  0  0  0  0  0  0  0  0  0
    2.4162    4.7110   17.3617 C   0  0  0  0  0  0  0  0  0  0  0  0
    2.7408    5.0679   18.6675 N   0  0  0  0  0  0  0  0  0  0  0  0
    2.8368    4.1139   19.6845 C   0  0  0  0  0  0  0  0  0  0  0  0
    3.6837    4.5878   20.8359 C   0  0  0  0  0  0  0  0  0  0  0  0
    4.8119    5.4668   20.4517 C   0  0  0  0  0  0  0  0  0  0  0  0
    4.4816    6.4965   19.4143 C   0  0  0  0  0  0  0  0  0  0  0  0
    3.0263    6.4111   18.9890 C   0  0  0  0  0  0  0  0  0  0  0  0
    5.2630    6.2101   21.6723 C   0  0  0  0  0  0  0  0  0  0  0  0
    4.7978    5.9157   22.9363 C   0  0  0  0  0  0  0  0  0  0  0  0
    5.2499    6.6340   24.0193 C   0  0  0  0  0  0  0  0  0  0  0  0
    6.1663    7.6577   23.9016 C   0  0  0  0  0  0  0  0  0  0  0  0
    6.6305    7.9538   22.6529 C   0  0  0  0  0  0  0  0  0  0  0  0
    6.1802    7.2339   21.5500 C   0  0  0  0  0  0  0  0  0  0  0  0
    4.7854    6.3410   25.2873 O   0  0  0  0  0  0  0  0  0  0  0  0
    4.3063    7.3937   26.0978 C   0  0  0  0  0  0  0  0  0  0  0  0
    1.5541   -0.1403    9.6806 C   0  0  0  0  0  0  0  0  0  0  0  0
    0.7032    0.4187    8.9461 O   0  0  0  0  0  0  0  0  0  0  0  0
    2.8250    0.3612    9.6569 O   0  0  0  0  0  0  0  0  0  0  0  0
    3.1456    1.7097    9.9519 C   0  0  0  0  0  0  0  0  0  0  0  0
  1  2  1  0
  2  3  2  0
  3  4  1  0
  4  5  1  0
  5  6  2  0
  6  7  1  0
  6  8  1  0
  5  9  1  0
  9 10  2  0
  9 11  1  0
 11 12  1  0
  4 13  1  0
 13 14  2  0
 14 15  1  0
 15 16  2  0
 16 17  1  0
 17 18  2  0
 15 19  1  0
 19 20  1  0
 20 21  2  0
 20 22  1  0
 22 23  1  0
 23 24  1  0
 24 25  1  0
 25 26  1  0
 26 27  1  0
 27 28  1  0
 28 29  1  0
 29 30  1  0
 30 31  1  0
 29 32  1  0
 32 33  2  0
 33 34  1  0
 34 35  2  0
 35 36  1  0
 36 37  2  0
 34 38  1  0
 38 39  1  0
  3 40  1  0
 40 41  2  0
 40 42  1  0
 42 43  1  0
  7  2  1  0
 18 13  1  0
 31 26  1  0
 37 32  1  0
M  END
$$$$
