
     RDKit          3D

 43 46  0  0  0  0  0  0  0  0999 V2000
    1.0502    7.8845   22.5704 C   0  0  0  0  0  0  0  0  0  0  0  0
    1.6996    6.6536   21.9893 C   0  0  0  0  0  0  0  0  0  0  0  0
    1.7373    6.4132   20.6909 C   0  0  0  0  0  0  0  0  0  0  0  0
    2.3623    5.2222   20.0786 C   0  0  0  0  0  0  0  0  0  0  0  0
    2.9653    4.2813   21.0522 C   0  0  0  0  0  0  0  0  0  0  0  0
    2.9228    4.5297   22.3493 C   0  0  0  0  0  0  0  0  0  0  0  0
    2.3014    5.7009   22.8544 N   0  0  0  0  0  0  0  0  0  0  0  0
    3.5487    3.5394   23.2818 C   0  0  0  0  0  0  0  0  0  0  0  0
    3.6202    3.0480   20.5598 C   0  0  0  0  0  0  0  0  0  0  0  0
    3.9675    3.0236   19.3529 O   0  0  0  0  0  0  0  0  0  0  0  0
    3.8736    1.9449   21.3078 O   0  0  0  0  0  0  0  0  0  0  0  0
    3.1344    0.7612   21.3164 C   0  0  0  0  0  0  0  0  0  0  0  0
    1.4117    4.5151   19.1683 C   0  0  0  0  0  0  0  0  0  0  0  0
    1.4397    4.7149   17.8199 C   0  0  0  0  0  0  0  0  0  0  0  0
    0.5650    4.0789   16.9235 C   0  0  0  0  0  0  0  0  0  0  0  0
   -0.3640    3.2131   17.4329 C   0  0  0  0  0  0  0  0  0  0  0  0
   -0.3895    3.0109   18.8164 C   0  0  0  0  0  0  0  0  0  0  0  0
    0.4742    3.6435   19.6658 C   0  0  0  0  0  0  0  0  0  0  0  0
    0.6998    4.3687   15.5649 N   0  0  0  0  0  0  0  0  0  0  0  0
    0.4606    3.4693   14.4944 C   0  0  0  0  0  0  0  0  0  0  0  0
    0.1533    2.2771   14.6930 O   0  0  0  0  0  0  0  0  0  0  0  0
    0.5602    3.8876   13.1346 N   0  0  0  0  0  0  0  0  0  0  0  0
   -0.3413    3.4559   12.1091 C   0  0  0  0  0  0  0  0  0  0  0  0
    0.1839    2.2239   11.4192 C   0  0  0  0  0  0  0  0  0  0  0  0
   -0.8844    1.5697   10.5646 C   0  0  0  0  0  0  0  0  0  0  0  0
   -0.8771    0.1784   10.5183 N   0  0  0  0  0  0  0  0  0  0  0  0
   -2.0398   -0.5670   10.7323 C   0  0  0  0  0  0  0  0  0  0  0  0
   -1.9537   -1.9464   10.1346 C   0  0  0  0  0  0  0  0  0  0  0  0
   -1.1676   -2.0286    8.8823 C   0  0  0  0  0  0  0  0  0  0  0  0
    0.1038   -1.2355    8.8848 C   0  0  0  0  0  0  0  0  0  0  0  0
    0.3094   -0.5179   10.2073 C   0  0  0  0  0  0  0  0  0  0  0  0
   -0.7848   -3.4609    8.6630 C   0  0  0  0  0  0  0  0  0  0  0  0
    0.5273   -3.8737    8.5686 C   0  0  0  0  0  0  0  0  0  0  0  0
    0.8161   -5.2039    8.3669 C   0  0  0  0  0  0  0  0  0  0  0  0
   -0.1635   -6.1675    8.2516 C   0  0  0  0  0  0  0  0  0  0  0  0
   -1.4641   -5.7649    8.3441 C   0  0  0  0  0  0  0  0  0  0  0  0
   -1.7683   -4.4221    8.5481 C   0  0  0  0  0  0  0  0  0  0  0  0
    2.1302   -5.6204    8.2721 O   0  0  0  0  0  0  0  0  0  0  0  0
    2.5856   -6.6410    9.1355 C   0  0  0  0  0  0  0  0  0  0  0  0
    1.1251    7.3787   19.7617 C   0  0  0  0  0  0  0  0  0  0  0  0
   -0.0708    7.7078   19.9560 O   0  0  0  0  0  0  0  0  0  0  0  0
    1.7639    7.9480   18.6963 O   0  0  0  0  0  0  0  0  0  0  0  0
    2.2989    7.2091   17.6117 C   0  0  0  0  0  0  0  0  0  0  0  0
  1  2  1  0
  2  3  2  0
  3  4  1  0
  4  5  1  0
  5  6  2  0
  6  7  1  0
  6  8  1  0
  5  9  1  0
  9 10  2  0
  9 11  1  0
 11 12  1  0
  4 13  1  0
 13 14  2  0
 14 15  1  0
 15 16  2  0
 16 17  1  0
 17 18  2  0
 15 19  1  0
 19 20  1  0
 20 21  2  0
 20 22  1  0
 22 23  1  0
 23 24  1  0
 24 25  1  0
 25 26  1  0
 26 27  1  0
 27 28  1  0
 28 29  1  0
 29 30  1  0
 30 31  1  0
 29 32  1  0
 32 33  2  0
 33 34  1  0
 34 35  2  0
 35 36  1  0
 36 37  2  0
 34 38  1  0
 38 39  1  0
  3 40  1  0
 40 41  2  0
 40 42  1  0
 42 43  1  0
  7  2  1  0
 18 13  1  0
 31 26  1  0
 37 32  1  0
M  END
$$$$
