
     RDKit          3D

 43 46  0  0  0  0  0  0  0  0999 V2000
    5.7759    3.8340   20.3032 C   0  0  0  0  0  0  0  0  0  0  0  0
    4.5951    4.6810   19.9000 C   0  0  0  0  0  0  0  0  0  0  0  0
    3.3465    4.3264   20.1456 C   0  0  0  0  0  0  0  0  0  0  0  0
    2.1609    5.1243   19.7692 C   0  0  0  0  0  0  0  0  0  0  0  0
    2.4763    6.3941   19.0728 C   0  0  0  0  0  0  0  0  0  0  0  0
    3.7282    6.7408   18.8311 C   0  0  0  0  0  0  0  0  0  0  0  0
    4.8107    5.9140   19.2280 N   0  0  0  0  0  0  0  0  0  0  0  0
    3.9812    8.0353   18.1223 C   0  0  0  0  0  0  0  0  0  0  0  0
    1.3706    7.2801   18.6427 C   0  0  0  0  0  0  0  0  0  0  0  0
    1.0082    7.2066   17.4423 O   0  0  0  0  0  0  0  0  0  0  0  0
    0.7203    8.1631   19.4414 O   0  0  0  0  0  0  0  0  0  0  0  0
   -0.6262    8.1163   19.8052 C   0  0  0  0  0  0  0  0  0  0  0  0
    1.1835    4.3112   18.9845 C   0  0  0  0  0  0  0  0  0  0  0  0
    1.3383    4.1158   17.6441 C   0  0  0  0  0  0  0  0  0  0  0  0
    0.4454    3.3649   16.8618 C   0  0  0  0  0  0  0  0  0  0  0  0
   -0.6367    2.8001   17.4801 C   0  0  0  0  0  0  0  0  0  0  0  0
   -0.7918    3.0028   18.8550 C   0  0  0  0  0  0  0  0  0  0  0  0
    0.0930    3.7386   19.5921 C   0  0  0  0  0  0  0  0  0  0  0  0
    0.7196    3.2391   15.4991 N   0  0  0  0  0  0  0  0  0  0  0  0
    0.0041    2.4325   14.5772 C   0  0  0  0  0  0  0  0  0  0  0  0
   -0.9674    1.7346   14.9295 O   0  0  0  0  0  0  0  0  0  0  0  0
    0.3633    2.3816   13.1979 N   0  0  0  0  0  0  0  0  0  0  0  0
   -0.5813    2.1575   12.1452 C   0  0  0  0  0  0  0  0  0  0  0  0
    0.0316    1.3330   11.0433 C   0  0  0  0  0  0  0  0  0  0  0  0
    0.7860    0.1403   11.5980 C   0  0  0  0  0  0  0  0  0  0  0  0
    0.3503   -1.1163   11.1869 N   0  0  0  0  0  0  0  0  0  0  0  0
   -0.9153   -1.3041   10.6243 C   0  0  0  0  0  0  0  0  0  0  0  0
   -0.9906   -2.5544    9.7885 C   0  0  0  0  0  0  0  0  0  0  0  0
    0.2622   -2.8978    9.0772 C   0  0  0  0  0  0  0  0  0  0  0  0
    1.5118   -2.7248    9.8858 C   0  0  0  0  0  0  0  0  0  0  0  0
    1.2031   -2.2349   11.2896 C   0  0  0  0  0  0  0  0  0  0  0  0
    0.1964   -4.3425    8.6842 C   0  0  0  0  0  0  0  0  0  0  0  0
   -0.9922   -4.9852    8.4108 C   0  0  0  0  0  0  0  0  0  0  0  0
   -0.9884   -6.3143    8.0544 C   0  0  0  0  0  0  0  0  0  0  0  0
    0.1716   -7.0533    7.9546 C   0  0  0  0  0  0  0  0  0  0  0  0
    1.3514   -6.4225    8.2241 C   0  0  0  0  0  0  0  0  0  0  0  0
    1.3597   -5.0783    8.5855 C   0  0  0  0  0  0  0  0  0  0  0  0
   -2.1782   -6.9609    7.7798 O   0  0  0  0  0  0  0  0  0  0  0  0
   -3.2657   -6.2067    7.2867 C   0  0  0  0  0  0  0  0  0  0  0  0
    3.0827    3.0550   20.8418 C   0  0  0  0  0  0  0  0  0  0  0  0
    2.2767    3.0656   21.8042 O   0  0  0  0  0  0  0  0  0  0  0  0
    3.6525    1.8560   20.5177 O   0  0  0  0  0  0  0  0  0  0  0  0
    2.9885    0.8402   19.7860 C   0  0  0  0  0  0  0  0  0  0  0  0
  1  2  1  0
  2  3  2  0
  3  4  1  0
  4  5  1  0
  5  6  2  0
  6  7  1  0
  6  8  1  0
  5  9  1  0
  9 10  2  0
  9 11  1  0
 11 12  1  0
  4 13  1  0
 13 14  2  0
 14 15  1  0
 15 16  2  0
 16 17  1  0
 17 18  2  0
 15 19  1  0
 19 20  1  0
 20 21  2  0
 20 22  1  0
 22 23  1  0
 23 24  1  0
 24 25  1  0
 25 26  1  0
 26 27  1  0
 27 28  1  0
 28 29  1  0
 29 30  1  0
 30 31  1  0
 29 32  1  0
 32 33  2  0
 33 34  1  0
 34 35  2  0
 35 36  1  0
 36 37  2  0
 34 38  1  0
 38 39  1  0
  3 40  1  0
 40 41  2  0
 40 42  1  0
 42 43  1  0
  7  2  1  0
 18 13  1  0
 31 26  1  0
 37 32  1  0
M  END
$$$$
