
     RDKit          3D

 43 46  0  0  0  0  0  0  0  0999 V2000
    3.0299   -5.4580   10.1341 C   0  0  0  0  0  0  0  0  0  0  0  0
    1.8149   -4.9436   10.8646 C   0  0  0  0  0  0  0  0  0  0  0  0
    0.7375   -4.5074   10.2369 C   0  0  0  0  0  0  0  0  0  0  0  0
   -0.4738   -3.9958   10.9114 C   0  0  0  0  0  0  0  0  0  0  0  0
   -0.3973   -4.0042   12.3916 C   0  0  0  0  0  0  0  0  0  0  0  0
    0.6845   -4.4423   13.0111 C   0  0  0  0  0  0  0  0  0  0  0  0
    1.8066   -4.9182   12.2850 N   0  0  0  0  0  0  0  0  0  0  0  0
    0.7007   -4.4237   14.5082 C   0  0  0  0  0  0  0  0  0  0  0  0
   -1.5496   -3.5125   13.1808 C   0  0  0  0  0  0  0  0  0  0  0  0
   -2.5873   -3.1960   12.5478 O   0  0  0  0  0  0  0  0  0  0  0  0
   -1.5722   -3.3769   14.5305 O   0  0  0  0  0  0  0  0  0  0  0  0
   -2.3193   -4.1409   15.4282 C   0  0  0  0  0  0  0  0  0  0  0  0
   -0.8507   -2.6427   10.4021 C   0  0  0  0  0  0  0  0  0  0  0  0
   -0.6276   -1.5192   11.1415 C   0  0  0  0  0  0  0  0  0  0  0  0
   -0.9681   -0.2266   10.7099 C   0  0  0  0  0  0  0  0  0  0  0  0
   -1.5549   -0.0900    9.4813 C   0  0  0  0  0  0  0  0  0  0  0  0
   -1.7819   -1.2447    8.7260 C   0  0  0  0  0  0  0  0  0  0  0  0
   -1.4402   -2.4909    9.1710 C   0  0  0  0  0  0  0  0  0  0  0  0
   -0.6838    0.8413   11.5623 N   0  0  0  0  0  0  0  0  0  0  0  0
   -0.5935    2.2059   11.1852 C   0  0  0  0  0  0  0  0  0  0  0  0
   -0.7722    2.5763   10.0080 O   0  0  0  0  0  0  0  0  0  0  0  0
   -0.2932    3.2231   12.1388 N   0  0  0  0  0  0  0  0  0  0  0  0
   -1.1617    4.3283   12.4121 C   0  0  0  0  0  0  0  0  0  0  0  0
   -0.6811    5.1023   13.6120 C   0  0  0  0  0  0  0  0  0  0  0  0
   -1.5741    6.2944   13.8964 C   0  0  0  0  0  0  0  0  0  0  0  0
   -1.1920    7.1193   14.9506 N   0  0  0  0  0  0  0  0  0  0  0  0
   -1.9070    8.2769   15.2703 C   0  0  0  0  0  0  0  0  0  0  0  0
   -1.6814    8.7146   16.6933 C   0  0  0  0  0  0  0  0  0  0  0  0
   -1.4771    7.6070   17.6548 C   0  0  0  0  0  0  0  0  0  0  0  0
   -0.5940    6.5013   17.1619 C   0  0  0  0  0  0  0  0  0  0  0  0
   -0.0867    6.7784   15.7576 C   0  0  0  0  0  0  0  0  0  0  0  0
   -0.8260    8.1673   18.8829 C   0  0  0  0  0  0  0  0  0  0  0  0
    0.2439    7.5564   19.5017 C   0  0  0  0  0  0  0  0  0  0  0  0
    0.7997    8.1197   20.6273 C   0  0  0  0  0  0  0  0  0  0  0  0
    0.3296    9.2920   21.1809 C   0  0  0  0  0  0  0  0  0  0  0  0
   -0.7293    9.9013   20.5728 C   0  0  0  0  0  0  0  0  0  0  0  0
   -1.2996    9.3406   19.4336 C   0  0  0  0  0  0  0  0  0  0  0  0
    1.8721    7.5097   21.2494 O   0  0  0  0  0  0  0  0  0  0  0  0
    1.6671    6.8750   22.4943 C   0  0  0  0  0  0  0  0  0  0  0  0
    0.7078   -4.5194    8.7640 C   0  0  0  0  0  0  0  0  0  0  0  0
   -0.2833   -5.0422    8.1980 O   0  0  0  0  0  0  0  0  0  0  0  0
    1.6840   -4.0010    7.9605 O   0  0  0  0  0  0  0  0  0  0  0  0
    1.6478   -2.6906    7.4220 C   0  0  0  0  0  0  0  0  0  0  0  0
  1  2  1  0
  2  3  2  0
  3  4  1  0
  4  5  1  0
  5  6  2  0
  6  7  1  0
  6  8  1  0
  5  9  1  0
  9 10  2  0
  9 11  1  0
 11 12  1  0
  4 13  1  0
 13 14  2  0
 14 15  1  0
 15 16  2  0
 16 17  1  0
 17 18  2  0
 15 19  1  0
 19 20  1  0
 20 21  2  0
 20 22  1  0
 22 23  1  0
 23 24  1  0
 24 25  1  0
 25 26  1  0
 26 27  1  0
 27 28  1  0
 28 29  1  0
 29 30  1  0
 30 31  1  0
 29 32  1  0
 32 33  2  0
 33 34  1  0
 34 35  2  0
 35 36  1  0
 36 37  2  0
 34 38  1  0
 38 39  1  0
  3 40  1  0
 40 41  2  0
 40 42  1  0
 42 43  1  0
  7  2  1  0
 18 13  1  0
 31 26  1  0
 37 32  1  0
M  END
$$$$
