
     RDKit          3D

 43 46  0  0  0  0  0  0  0  0999 V2000
   -1.7155   -6.8477    7.5954 C   0  0  0  0  0  0  0  0  0  0  0  0
   -0.7339   -6.2048    8.5429 C   0  0  0  0  0  0  0  0  0  0  0  0
   -1.0676   -5.2148    9.3513 C   0  0  0  0  0  0  0  0  0  0  0  0
   -0.1399   -4.5565   10.2947 C   0  0  0  0  0  0  0  0  0  0  0  0
    1.2391   -5.0994   10.2729 C   0  0  0  0  0  0  0  0  0  0  0  0
    1.5641   -6.0898    9.4609 C   0  0  0  0  0  0  0  0  0  0  0  0
    0.6089   -6.6667    8.5846 N   0  0  0  0  0  0  0  0  0  0  0  0
    2.9741   -6.5930    9.4851 C   0  0  0  0  0  0  0  0  0  0  0  0
    2.2618   -4.5194   11.1730 C   0  0  0  0  0  0  0  0  0  0  0  0
    2.5035   -5.1344   12.2412 O   0  0  0  0  0  0  0  0  0  0  0  0
    2.9562   -3.3784   10.9352 O   0  0  0  0  0  0  0  0  0  0  0  0
    2.7189   -2.1285   11.5089 C   0  0  0  0  0  0  0  0  0  0  0  0
   -0.1350   -3.0740   10.1090 C   0  0  0  0  0  0  0  0  0  0  0  0
   -0.1176   -2.2257   11.1762 C   0  0  0  0  0  0  0  0  0  0  0  0
   -0.1176   -0.8263   11.0544 C   0  0  0  0  0  0  0  0  0  0  0  0
   -0.1360   -0.2879    9.7967 C   0  0  0  0  0  0  0  0  0  0  0  0
   -0.1538   -1.1613    8.7047 C   0  0  0  0  0  0  0  0  0  0  0  0
   -0.1534   -2.5199    8.8525 C   0  0  0  0  0  0  0  0  0  0  0  0
   -0.0963   -0.0700   12.2272 N   0  0  0  0  0  0  0  0  0  0  0  0
   -0.1895    1.3432   12.3079 C   0  0  0  0  0  0  0  0  0  0  0  0
    0.3682    2.0878   11.4775 O   0  0  0  0  0  0  0  0  0  0  0  0
   -0.9290    1.9821   13.3466 N   0  0  0  0  0  0  0  0  0  0  0  0
   -0.3182    2.5834   14.4938 C   0  0  0  0  0  0  0  0  0  0  0  0
   -0.1100    4.0596   14.2769 C   0  0  0  0  0  0  0  0  0  0  0  0
   -0.9481    4.8839   15.2349 C   0  0  0  0  0  0  0  0  0  0  0  0
   -0.3838    5.1553   16.4782 N   0  0  0  0  0  0  0  0  0  0  0  0
    0.9863    5.0034   16.7089 C   0  0  0  0  0  0  0  0  0  0  0  0
    1.4638    5.8204   17.8802 C   0  0  0  0  0  0  0  0  0  0  0  0
    0.7580    7.1095   18.0624 C   0  0  0  0  0  0  0  0  0  0  0  0
   -0.7267    7.0460   17.8699 C   0  0  0  0  0  0  0  0  0  0  0  0
   -1.1847    5.6376   17.5342 C   0  0  0  0  0  0  0  0  0  0  0  0
    0.9937    7.5780   19.4663 C   0  0  0  0  0  0  0  0  0  0  0  0
    1.1177    8.9114   19.7941 C   0  0  0  0  0  0  0  0  0  0  0  0
    1.3333    9.2800   21.1022 C   0  0  0  0  0  0  0  0  0  0  0  0
    1.4340    8.3615   22.1259 C   0  0  0  0  0  0  0  0  0  0  0  0
    1.3121    7.0401   21.8075 C   0  0  0  0  0  0  0  0  0  0  0  0
    1.0938    6.6555   20.4877 C   0  0  0  0  0  0  0  0  0  0  0  0
    1.4579   10.6156   21.4336 O   0  0  0  0  0  0  0  0  0  0  0  0
    0.8395   11.5825   20.6106 C   0  0  0  0  0  0  0  0  0  0  0  0
   -2.4513   -4.7093    9.3378 C   0  0  0  0  0  0  0  0  0  0  0  0
   -2.7814   -3.8699   10.2109 O   0  0  0  0  0  0  0  0  0  0  0  0
   -3.4105   -5.0870    8.4407 O   0  0  0  0  0  0  0  0  0  0  0  0
   -4.4443   -6.0106    8.7347 C   0  0  0  0  0  0  0  0  0  0  0  0
  1  2  1  0
  2  3  2  0
  3  4  1  0
  4  5  1  0
  5  6  2  0
  6  7  1  0
  6  8  1  0
  5  9  1  0
  9 10  2  0
  9 11  1  0
 11 12  1  0
  4 13  1  0
 13 14  2  0
 14 15  1  0
 15 16  2  0
 16 17  1  0
 17 18  2  0
 15 19  1  0
 19 20  1  0
 20 21  2  0
 20 22  1  0
 22 23  1  0
 23 24  1  0
 24 25  1  0
 25 26  1  0
 26 27  1  0
 27 28  1  0
 28 29  1  0
 29 30  1  0
 30 31  1  0
 29 32  1  0
 32 33  2  0
 33 34  1  0
 34 35  2  0
 35 36  1  0
 36 37  2  0
 34 38  1  0
 38 39  1  0
  3 40  1  0
 40 41  2  0
 40 42  1  0
 42 43  1  0
  7  2  1  0
 18 13  1  0
 31 26  1  0
 37 32  1  0
M  END
$$$$
