
     RDKit          3D

 43 46  0  0  0  0  0  0  0  0999 V2000
    5.0244    2.5179   22.4834 C   0  0  0  0  0  0  0  0  0  0  0  0
    4.2778    3.7754   22.1150 C   0  0  0  0  0  0  0  0  0  0  0  0
    3.2687    3.7814   21.2626 C   0  0  0  0  0  0  0  0  0  0  0  0
    2.5097    4.9882   20.8734 C   0  0  0  0  0  0  0  0  0  0  0  0
    2.9720    6.2363   21.5257 C   0  0  0  0  0  0  0  0  0  0  0  0
    3.9823    6.2210   22.3771 C   0  0  0  0  0  0  0  0  0  0  0  0
    4.6578    5.0148   22.6962 N   0  0  0  0  0  0  0  0  0  0  0  0
    4.4029    7.5152   23.0017 C   0  0  0  0  0  0  0  0  0  0  0  0
    2.2910    7.5135   21.2139 C   0  0  0  0  0  0  0  0  0  0  0  0
    1.0351    7.5053   21.1913 O   0  0  0  0  0  0  0  0  0  0  0  0
    2.9154    8.6889   20.9510 O   0  0  0  0  0  0  0  0  0  0  0  0
    2.4498    9.7070   20.1178 C   0  0  0  0  0  0  0  0  0  0  0  0
    2.4610    5.1460   19.3885 C   0  0  0  0  0  0  0  0  0  0  0  0
    1.8637    4.2117   18.5953 C   0  0  0  0  0  0  0  0  0  0  0  0
    1.7963    4.3114   17.1957 C   0  0  0  0  0  0  0  0  0  0  0  0
    2.3609    5.4056   16.5987 C   0  0  0  0  0  0  0  0  0  0  0  0
    2.9725    6.3615   17.4158 C   0  0  0  0  0  0  0  0  0  0  0  0
    3.0235    6.2390   18.7759 C   0  0  0  0  0  0  0  0  0  0  0  0
    1.1538    3.2866   16.4994 N   0  0  0  0  0  0  0  0  0  0  0  0
    0.9554    3.2313   15.0959 C   0  0  0  0  0  0  0  0  0  0  0  0
    1.3249    4.1537   14.3424 O   0  0  0  0  0  0  0  0  0  0  0  0
    0.3217    2.1133   14.4774 N   0  0  0  0  0  0  0  0  0  0  0  0
    0.2044    1.9593   13.0585 C   0  0  0  0  0  0  0  0  0  0  0  0
   -0.4155    0.6300   12.7142 C   0  0  0  0  0  0  0  0  0  0  0  0
   -0.0783    0.2123   11.2960 C   0  0  0  0  0  0  0  0  0  0  0  0
   -0.3137   -1.1200   10.9683 N   0  0  0  0  0  0  0  0  0  0  0  0
   -1.5864   -1.6870   11.0789 C   0  0  0  0  0  0  0  0  0  0  0  0
   -1.7472   -2.9067   10.2107 C   0  0  0  0  0  0  0  0  0  0  0  0
   -0.9989   -2.8585    8.9336 C   0  0  0  0  0  0  0  0  0  0  0  0
    0.3910   -2.3087    9.0397 C   0  0  0  0  0  0  0  0  0  0  0  0
    0.7305   -1.9262   10.4696 C   0  0  0  0  0  0  0  0  0  0  0  0
   -0.8733   -4.2576    8.4115 C   0  0  0  0  0  0  0  0  0  0  0  0
   -1.0292   -5.3676    9.2143 C   0  0  0  0  0  0  0  0  0  0  0  0
   -0.9021   -6.6277    8.6764 C   0  0  0  0  0  0  0  0  0  0  0  0
   -0.6200   -6.8416    7.3437 C   0  0  0  0  0  0  0  0  0  0  0  0
   -0.4645   -5.7467    6.5440 C   0  0  0  0  0  0  0  0  0  0  0  0
   -0.5909   -4.4672    7.0770 C   0  0  0  0  0  0  0  0  0  0  0  0
   -1.0579   -7.7418    9.4787 O   0  0  0  0  0  0  0  0  0  0  0  0
   -2.1173   -8.6352    9.2062 C   0  0  0  0  0  0  0  0  0  0  0  0
    2.8445    2.5153   20.6401 C   0  0  0  0  0  0  0  0  0  0  0  0
    1.6138    2.3077   20.5046 O   0  0  0  0  0  0  0  0  0  0  0  0
    3.6944    1.5421   20.1954 O   0  0  0  0  0  0  0  0  0  0  0  0
    4.0133    1.3382   18.8297 C   0  0  0  0  0  0  0  0  0  0  0  0
  1  2  1  0
  2  3  2  0
  3  4  1  0
  4  5  1  0
  5  6  2  0
  6  7  1  0
  6  8  1  0
  5  9  1  0
  9 10  2  0
  9 11  1  0
 11 12  1  0
  4 13  1  0
 13 14  2  0
 14 15  1  0
 15 16  2  0
 16 17  1  0
 17 18  2  0
 15 19  1  0
 19 20  1  0
 20 21  2  0
 20 22  1  0
 22 23  1  0
 23 24  1  0
 24 25  1  0
 25 26  1  0
 26 27  1  0
 27 28  1  0
 28 29  1  0
 29 30  1  0
 30 31  1  0
 29 32  1  0
 32 33  2  0
 33 34  1  0
 34 35  2  0
 35 36  1  0
 36 37  2  0
 34 38  1  0
 38 39  1  0
  3 40  1  0
 40 41  2  0
 40 42  1  0
 42 43  1  0
  7  2  1  0
 18 13  1  0
 31 26  1  0
 37 32  1  0
M  END
$$$$
