
     RDKit          3D

 43 46  0  0  0  0  0  0  0  0999 V2000
    1.4085   -6.3448    7.7098 C   0  0  0  0  0  0  0  0  0  0  0  0
    0.9812   -5.5512    8.9190 C   0  0  0  0  0  0  0  0  0  0  0  0
    0.3195   -4.4117    8.8262 C   0  0  0  0  0  0  0  0  0  0  0  0
   -0.1186   -3.6024    9.9825 C   0  0  0  0  0  0  0  0  0  0  0  0
    0.2468   -4.1738   11.3004 C   0  0  0  0  0  0  0  0  0  0  0  0
    0.9088   -5.3142   11.3838 C   0  0  0  0  0  0  0  0  0  0  0  0
    1.2920   -6.0296   10.2200 N   0  0  0  0  0  0  0  0  0  0  0  0
    1.2498   -5.8383   12.7443 C   0  0  0  0  0  0  0  0  0  0  0  0
   -0.1356   -3.4522   12.5356 C   0  0  0  0  0  0  0  0  0  0  0  0
    0.2007   -2.2453   12.6243 O   0  0  0  0  0  0  0  0  0  0  0  0
   -0.8185   -3.9913   13.5765 O   0  0  0  0  0  0  0  0  0  0  0  0
   -0.2716   -4.4718   14.7672 C   0  0  0  0  0  0  0  0  0  0  0  0
    0.3461   -2.1873    9.8646 C   0  0  0  0  0  0  0  0  0  0  0  0
   -0.0417   -1.2365   10.7615 C   0  0  0  0  0  0  0  0  0  0  0  0
    0.3630    0.1068   10.6911 C   0  0  0  0  0  0  0  0  0  0  0  0
    1.1908    0.4787    9.6670 C   0  0  0  0  0  0  0  0  0  0  0  0
    1.5863   -0.4995    8.7493 C   0  0  0  0  0  0  0  0  0  0  0  0
    1.1769   -1.8001    8.8419 C   0  0  0  0  0  0  0  0  0  0  0  0
   -0.1036    0.9806   11.6744 N   0  0  0  0  0  0  0  0  0  0  0  0
    0.2304    2.3541   11.7936 C   0  0  0  0  0  0  0  0  0  0  0  0
    0.7742    2.9820   10.8636 O   0  0  0  0  0  0  0  0  0  0  0  0
   -0.0416    3.0851   12.9876 N   0  0  0  0  0  0  0  0  0  0  0  0
   -0.3746    4.4778   13.0005 C   0  0  0  0  0  0  0  0  0  0  0  0
   -0.5501    4.9727   14.4126 C   0  0  0  0  0  0  0  0  0  0  0  0
   -0.1549    6.4310   14.5417 C   0  0  0  0  0  0  0  0  0  0  0  0
   -0.3380    7.0159   15.7915 N   0  0  0  0  0  0  0  0  0  0  0  0
   -0.9796    8.2493   15.9354 C   0  0  0  0  0  0  0  0  0  0  0  0
   -1.5387    8.4457   17.3197 C   0  0  0  0  0  0  0  0  0  0  0  0
   -2.0257    7.2077   17.9702 C   0  0  0  0  0  0  0  0  0  0  0  0
   -1.1436    6.0108   17.7840 C   0  0  0  0  0  0  0  0  0  0  0  0
    0.0861    6.3486   16.9595 C   0  0  0  0  0  0  0  0  0  0  0  0
   -2.1128    7.4571   19.4454 C   0  0  0  0  0  0  0  0  0  0  0  0
   -1.2204    6.9139   20.3452 C   0  0  0  0  0  0  0  0  0  0  0  0
   -1.3520    7.1799   21.6888 C   0  0  0  0  0  0  0  0  0  0  0  0
   -2.3549    7.9809   22.1928 C   0  0  0  0  0  0  0  0  0  0  0  0
   -3.2413    8.5214   21.3070 C   0  0  0  0  0  0  0  0  0  0  0  0
   -3.1180    8.2594   19.9456 C   0  0  0  0  0  0  0  0  0  0  0  0
   -0.4590    6.6369   22.5927 O   0  0  0  0  0  0  0  0  0  0  0  0
   -0.5043    5.2480   22.8449 C   0  0  0  0  0  0  0  0  0  0  0  0
   -0.0222   -3.8838    7.4939 C   0  0  0  0  0  0  0  0  0  0  0  0
   -0.6513   -2.7991    7.4325 O   0  0  0  0  0  0  0  0  0  0  0  0
    0.2955   -4.4891    6.3107 O   0  0  0  0  0  0  0  0  0  0  0  0
   -0.4524   -5.5503    5.7426 C   0  0  0  0  0  0  0  0  0  0  0  0
  1  2  1  0
  2  3  2  0
  3  4  1  0
  4  5  1  0
  5  6  2  0
  6  7  1  0
  6  8  1  0
  5  9  1  0
  9 10  2  0
  9 11  1  0
 11 12  1  0
  4 13  1  0
 13 14  2  0
 14 15  1  0
 15 16  2  0
 16 17  1  0
 17 18  2  0
 15 19  1  0
 19 20  1  0
 20 21  2  0
 20 22  1  0
 22 23  1  0
 23 24  1  0
 24 25  1  0
 25 26  1  0
 26 27  1  0
 27 28  1  0
 28 29  1  0
 29 30  1  0
 30 31  1  0
 29 32  1  0
 32 33  2  0
 33 34  1  0
 34 35  2  0
 35 36  1  0
 36 37  2  0
 34 38  1  0
 38 39  1  0
  3 40  1  0
 40 41  2  0
 40 42  1  0
 42 43  1  0
  7  2  1  0
 18 13  1  0
 31 26  1  0
 37 32  1  0
M  END
$$$$
