
     RDKit          3D

 43 46  0  0  0  0  0  0  0  0999 V2000
    4.1778   -4.0896   10.0959 C   0  0  0  0  0  0  0  0  0  0  0  0
    2.6707   -4.0798   10.0419 C   0  0  0  0  0  0  0  0  0  0  0  0
    1.9937   -3.3669    9.1597 C   0  0  0  0  0  0  0  0  0  0  0  0
    0.5191   -3.3277    9.0705 C   0  0  0  0  0  0  0  0  0  0  0  0
   -0.1752   -4.1709   10.0724 C   0  0  0  0  0  0  0  0  0  0  0  0
    0.5100   -4.8808   10.9513 C   0  0  0  0  0  0  0  0  0  0  0  0
    1.9286   -4.8615   10.9675 N   0  0  0  0  0  0  0  0  0  0  0  0
   -0.2496   -5.7115   11.9387 C   0  0  0  0  0  0  0  0  0  0  0  0
   -1.6552   -4.2129   10.0854 C   0  0  0  0  0  0  0  0  0  0  0  0
   -2.2501   -3.3272   10.7482 O   0  0  0  0  0  0  0  0  0  0  0  0
   -2.4172   -5.1309    9.4395 O   0  0  0  0  0  0  0  0  0  0  0  0
   -2.4462   -6.5045    9.6842 C   0  0  0  0  0  0  0  0  0  0  0  0
    0.0082   -1.9241    9.1052 C   0  0  0  0  0  0  0  0  0  0  0  0
    0.3622   -1.0650   10.1030 C   0  0  0  0  0  0  0  0  0  0  0  0
   -0.0947    0.2609   10.1831 C   0  0  0  0  0  0  0  0  0  0  0  0
   -0.9401    0.7123    9.2065 C   0  0  0  0  0  0  0  0  0  0  0  0
   -1.3007   -0.1718    8.1849 C   0  0  0  0  0  0  0  0  0  0  0  0
   -0.8408   -1.4576    8.1317 C   0  0  0  0  0  0  0  0  0  0  0  0
    0.3452    1.0383   11.2555 N   0  0  0  0  0  0  0  0  0  0  0  0
   -0.4088    2.0368   11.9240 C   0  0  0  0  0  0  0  0  0  0  0  0
   -1.5955    2.2756   11.6248 O   0  0  0  0  0  0  0  0  0  0  0  0
    0.1571    2.8177   12.9747 N   0  0  0  0  0  0  0  0  0  0  0  0
   -0.6253    3.4678   13.9827 C   0  0  0  0  0  0  0  0  0  0  0  0
   -0.1953    3.0300   15.3586 C   0  0  0  0  0  0  0  0  0  0  0  0
   -1.0044    3.7222   16.4383 C   0  0  0  0  0  0  0  0  0  0  0  0
   -0.2841    4.3009   17.4795 N   0  0  0  0  0  0  0  0  0  0  0  0
    1.0796    4.5819   17.3583 C   0  0  0  0  0  0  0  0  0  0  0  0
    1.5334    5.6441   18.3243 C   0  0  0  0  0  0  0  0  0  0  0  0
    0.5226    6.6865   18.6153 C   0  0  0  0  0  0  0  0  0  0  0  0
   -0.8710    6.1728   18.8139 C   0  0  0  0  0  0  0  0  0  0  0  0
   -0.9315    4.6614   18.6795 C   0  0  0  0  0  0  0  0  0  0  0  0
    0.9152    7.3777   19.8858 C   0  0  0  0  0  0  0  0  0  0  0  0
   -0.0086    7.8056   20.8155 C   0  0  0  0  0  0  0  0  0  0  0  0
    0.4136    8.4346   21.9642 C   0  0  0  0  0  0  0  0  0  0  0  0
    1.7453    8.6641   22.2390 C   0  0  0  0  0  0  0  0  0  0  0  0
    2.6644    8.2428   21.3224 C   0  0  0  0  0  0  0  0  0  0  0  0
    2.2490    7.6054   20.1568 C   0  0  0  0  0  0  0  0  0  0  0  0
   -0.5101    8.8644   22.8976 O   0  0  0  0  0  0  0  0  0  0  0  0
   -1.7491    8.1927   22.9897 C   0  0  0  0  0  0  0  0  0  0  0  0
    2.7281   -2.5445    8.1826 C   0  0  0  0  0  0  0  0  0  0  0  0
    3.9583   -2.3713    8.3633 O   0  0  0  0  0  0  0  0  0  0  0  0
    2.1686   -1.9512    7.0861 O   0  0  0  0  0  0  0  0  0  0  0  0
    2.8362   -1.8003    5.8451 C   0  0  0  0  0  0  0  0  0  0  0  0
  1  2  1  0
  2  3  2  0
  3  4  1  0
  4  5  1  0
  5  6  2  0
  6  7  1  0
  6  8  1  0
  5  9  1  0
  9 10  2  0
  9 11  1  0
 11 12  1  0
  4 13  1  0
 13 14  2  0
 14 15  1  0
 15 16  2  0
 16 17  1  0
 17 18  2  0
 15 19  1  0
 19 20  1  0
 20 21  2  0
 20 22  1  0
 22 23  1  0
 23 24  1  0
 24 25  1  0
 25 26  1  0
 26 27  1  0
 27 28  1  0
 28 29  1  0
 29 30  1  0
 30 31  1  0
 29 32  1  0
 32 33  2  0
 33 34  1  0
 34 35  2  0
 35 36  1  0
 36 37  2  0
 34 38  1  0
 38 39  1  0
  3 40  1  0
 40 41  2  0
 40 42  1  0
 42 43  1  0
  7  2  1  0
 18 13  1  0
 31 26  1  0
 37 32  1  0
M  END
$$$$
