
     RDKit          3D

 43 46  0  0  0  0  0  0  0  0999 V2000
    5.3831    7.0904   21.7048 C   0  0  0  0  0  0  0  0  0  0  0  0
    4.4249    5.9261   21.6799 C   0  0  0  0  0  0  0  0  0  0  0  0
    3.7954    5.5444   20.5831 C   0  0  0  0  0  0  0  0  0  0  0  0
    2.8496    4.4110   20.5130 C   0  0  0  0  0  0  0  0  0  0  0  0
    2.6464    3.7056   21.8007 C   0  0  0  0  0  0  0  0  0  0  0  0
    3.2802    4.0943   22.8929 C   0  0  0  0  0  0  0  0  0  0  0  0
    4.1742    5.1959   22.8725 N   0  0  0  0  0  0  0  0  0  0  0  0
    3.0312    3.3416   24.1631 C   0  0  0  0  0  0  0  0  0  0  0  0
    1.7187    2.5530   21.8584 C   0  0  0  0  0  0  0  0  0  0  0  0
    1.7692    1.7260   20.9143 O   0  0  0  0  0  0  0  0  0  0  0  0
    0.8204    2.3210   22.8482 O   0  0  0  0  0  0  0  0  0  0  0  0
   -0.5698    2.3450   22.7287 C   0  0  0  0  0  0  0  0  0  0  0  0
    1.5438    4.8269   19.9180 C   0  0  0  0  0  0  0  0  0  0  0  0
    1.0462    4.2183   18.8040 C   0  0  0  0  0  0  0  0  0  0  0  0
   -0.1725    4.5759   18.2040 C   0  0  0  0  0  0  0  0  0  0  0  0
   -0.8975    5.5892   18.7696 C   0  0  0  0  0  0  0  0  0  0  0  0
   -0.3838    6.2107   19.9120 C   0  0  0  0  0  0  0  0  0  0  0  0
    0.8057    5.8423   20.4750 C   0  0  0  0  0  0  0  0  0  0  0  0
   -0.5705    3.8717   17.0666 N   0  0  0  0  0  0  0  0  0  0  0  0
    0.1761    2.8591   16.4112 C   0  0  0  0  0  0  0  0  0  0  0  0
    1.2542    2.4342   16.8718 O   0  0  0  0  0  0  0  0  0  0  0  0
   -0.2731    2.2763   15.1895 N   0  0  0  0  0  0  0  0  0  0  0  0
   -1.0318    1.0633   15.1269 C   0  0  0  0  0  0  0  0  0  0  0  0
   -0.3019    0.0167   14.3260 C   0  0  0  0  0  0  0  0  0  0  0  0
   -1.2679   -0.8873   13.5850 C   0  0  0  0  0  0  0  0  0  0  0  0
   -0.7335   -1.6558   12.5547 N   0  0  0  0  0  0  0  0  0  0  0  0
   -1.3438   -2.8403   12.1328 C   0  0  0  0  0  0  0  0  0  0  0  0
   -0.9497   -3.2193   10.7298 C   0  0  0  0  0  0  0  0  0  0  0  0
   -0.7134   -2.0720    9.8237 C   0  0  0  0  0  0  0  0  0  0  0  0
    0.0493   -0.9357   10.4338 C   0  0  0  0  0  0  0  0  0  0  0  0
    0.4265   -1.2289   11.8753 C   0  0  0  0  0  0  0  0  0  0  0  0
    0.0905   -2.5561    8.6552 C   0  0  0  0  0  0  0  0  0  0  0  0
    0.5624   -1.7088    7.6752 C   0  0  0  0  0  0  0  0  0  0  0  0
    1.2958   -2.2132    6.6259 C   0  0  0  0  0  0  0  0  0  0  0  0
    1.5896   -3.5547    6.5019 C   0  0  0  0  0  0  0  0  0  0  0  0
    1.1252   -4.3984    7.4689 C   0  0  0  0  0  0  0  0  0  0  0  0
    0.3822   -3.8995    8.5350 C   0  0  0  0  0  0  0  0  0  0  0  0
    1.7700   -1.3663    5.6425 O   0  0  0  0  0  0  0  0  0  0  0  0
    1.8740    0.0139    5.9236 C   0  0  0  0  0  0  0  0  0  0  0  0
    4.0305    6.2762   19.3263 C   0  0  0  0  0  0  0  0  0  0  0  0
    3.3565    5.9500   18.3186 O   0  0  0  0  0  0  0  0  0  0  0  0
    4.9329    7.2907   19.1721 O   0  0  0  0  0  0  0  0  0  0  0  0
    6.1437    7.1648   18.4465 C   0  0  0  0  0  0  0  0  0  0  0  0
  1  2  1  0
  2  3  2  0
  3  4  1  0
  4  5  1  0
  5  6  2  0
  6  7  1  0
  6  8  1  0
  5  9  1  0
  9 10  2  0
  9 11  1  0
 11 12  1  0
  4 13  1  0
 13 14  2  0
 14 15  1  0
 15 16  2  0
 16 17  1  0
 17 18  2  0
 15 19  1  0
 19 20  1  0
 20 21  2  0
 20 22  1  0
 22 23  1  0
 23 24  1  0
 24 25  1  0
 25 26  1  0
 26 27  1  0
 27 28  1  0
 28 29  1  0
 29 30  1  0
 30 31  1  0
 29 32  1  0
 32 33  2  0
 33 34  1  0
 34 35  2  0
 35 36  1  0
 36 37  2  0
 34 38  1  0
 38 39  1  0
  3 40  1  0
 40 41  2  0
 40 42  1  0
 42 43  1  0
  7  2  1  0
 18 13  1  0
 31 26  1  0
 37 32  1  0
M  END
$$$$
