
     RDKit          3D

 43 46  0  0  0  0  0  0  0  0999 V2000
   -3.1897   -5.6271   10.8426 C   0  0  0  0  0  0  0  0  0  0  0  0
   -1.9280   -5.2434   10.1110 C   0  0  0  0  0  0  0  0  0  0  0  0
   -1.1463   -4.2553   10.5080 C   0  0  0  0  0  0  0  0  0  0  0  0
    0.0974   -3.8457    9.8229 C   0  0  0  0  0  0  0  0  0  0  0  0
    0.4214   -4.6450    8.6175 C   0  0  0  0  0  0  0  0  0  0  0  0
   -0.3663   -5.6317    8.2276 C   0  0  0  0  0  0  0  0  0  0  0  0
   -1.5452   -5.9599    8.9456 N   0  0  0  0  0  0  0  0  0  0  0  0
    0.0149   -6.4008    7.0007 C   0  0  0  0  0  0  0  0  0  0  0  0
    1.6431   -4.3282    7.8432 C   0  0  0  0  0  0  0  0  0  0  0  0
    2.5156   -3.6232    8.4083 O   0  0  0  0  0  0  0  0  0  0  0  0
    1.8931   -4.7382    6.5744 O   0  0  0  0  0  0  0  0  0  0  0  0
    1.6644   -4.0086    5.4069 C   0  0  0  0  0  0  0  0  0  0  0  0
    0.0920   -2.3845    9.5113 C   0  0  0  0  0  0  0  0  0  0  0  0
    0.4325   -1.4576   10.4515 C   0  0  0  0  0  0  0  0  0  0  0  0
    0.4381   -0.0739   10.2098 C   0  0  0  0  0  0  0  0  0  0  0  0
    0.0826    0.3651    8.9636 C   0  0  0  0  0  0  0  0  0  0  0  0
   -0.2659   -0.5887    8.0021 C   0  0  0  0  0  0  0  0  0  0  0  0
   -0.2626   -1.9298    8.2649 C   0  0  0  0  0  0  0  0  0  0  0  0
    0.8093    0.7694   11.2582 N   0  0  0  0  0  0  0  0  0  0  0  0
    0.5773    2.1673   11.3238 C   0  0  0  0  0  0  0  0  0  0  0  0
    0.1150    2.8035   10.3561 O   0  0  0  0  0  0  0  0  0  0  0  0
    0.8625    2.9143   12.5047 N   0  0  0  0  0  0  0  0  0  0  0  0
   -0.1463    3.5487   13.2989 C   0  0  0  0  0  0  0  0  0  0  0  0
    0.3023    3.6757   14.7316 C   0  0  0  0  0  0  0  0  0  0  0  0
   -0.5544    4.6675   15.4944 C   0  0  0  0  0  0  0  0  0  0  0  0
    0.0137    5.2325   16.6327 N   0  0  0  0  0  0  0  0  0  0  0  0
    1.1736    6.0093   16.5632 C   0  0  0  0  0  0  0  0  0  0  0  0
    1.3166    6.9317   17.7448 C   0  0  0  0  0  0  0  0  0  0  0  0
    0.0372    7.4472   18.2839 C   0  0  0  0  0  0  0  0  0  0  0  0
   -1.0613    6.4322   18.3746 C   0  0  0  0  0  0  0  0  0  0  0  0
   -0.6000    5.0683   17.8918 C   0  0  0  0  0  0  0  0  0  0  0  0
    0.2828    7.9462   19.6756 C   0  0  0  0  0  0  0  0  0  0  0  0
   -0.5266    7.6097   20.7397 C   0  0  0  0  0  0  0  0  0  0  0  0
   -0.2496    8.0995   21.9953 C   0  0  0  0  0  0  0  0  0  0  0  0
    0.8220    8.9295   22.2492 C   0  0  0  0  0  0  0  0  0  0  0  0
    1.6268    9.2661   21.1998 C   0  0  0  0  0  0  0  0  0  0  0  0
    1.3563    8.7766   19.9252 C   0  0  0  0  0  0  0  0  0  0  0  0
   -1.0591    7.7638   23.0636 O   0  0  0  0  0  0  0  0  0  0  0  0
   -0.6454    6.7316   23.9343 C   0  0  0  0  0  0  0  0  0  0  0  0
   -1.5094   -3.4896   11.7132 C   0  0  0  0  0  0  0  0  0  0  0  0
   -0.6569   -3.3924   12.6296 O   0  0  0  0  0  0  0  0  0  0  0  0
   -2.7123   -2.8724   11.9115 O   0  0  0  0  0  0  0  0  0  0  0  0
   -2.8757   -1.4660   11.9726 C   0  0  0  0  0  0  0  0  0  0  0  0
  1  2  1  0
  2  3  2  0
  3  4  1  0
  4  5  1  0
  5  6  2  0
  6  7  1  0
  6  8  1  0
  5  9  1  0
  9 10  2  0
  9 11  1  0
 11 12  1  0
  4 13  1  0
 13 14  2  0
 14 15  1  0
 15 16  2  0
 16 17  1  0
 17 18  2  0
 15 19  1  0
 19 20  1  0
 20 21  2  0
 20 22  1  0
 22 23  1  0
 23 24  1  0
 24 25  1  0
 25 26  1  0
 26 27  1  0
 27 28  1  0
 28 29  1  0
 29 30  1  0
 30 31  1  0
 29 32  1  0
 32 33  2  0
 33 34  1  0
 34 35  2  0
 35 36  1  0
 36 37  2  0
 34 38  1  0
 38 39  1  0
  3 40  1  0
 40 41  2  0
 40 42  1  0
 42 43  1  0
  7  2  1  0
 18 13  1  0
 31 26  1  0
 37 32  1  0
M  END
$$$$
