
     RDKit          3D

 43 46  0  0  0  0  0  0  0  0999 V2000
    3.8288   -2.9428   10.1143 C   0  0  0  0  0  0  0  0  0  0  0  0
    2.3307   -3.0475   10.2531 C   0  0  0  0  0  0  0  0  0  0  0  0
    1.4948   -2.3715    9.4855 C   0  0  0  0  0  0  0  0  0  0  0  0
    0.0222   -2.4437    9.5862 C   0  0  0  0  0  0  0  0  0  0  0  0
   -0.4728   -3.3571   10.6433 C   0  0  0  0  0  0  0  0  0  0  0  0
    0.3706   -4.0294   11.4066 C   0  0  0  0  0  0  0  0  0  0  0  0
    1.7741   -3.9017   11.2424 N   0  0  0  0  0  0  0  0  0  0  0  0
   -0.1919   -4.9350   12.4581 C   0  0  0  0  0  0  0  0  0  0  0  0
   -1.9316   -3.5127   10.8435 C   0  0  0  0  0  0  0  0  0  0  0  0
   -2.6692   -2.5740   10.4531 O   0  0  0  0  0  0  0  0  0  0  0  0
   -2.5325   -4.5866   11.4146 O   0  0  0  0  0  0  0  0  0  0  0  0
   -3.0643   -5.6912   10.7477 C   0  0  0  0  0  0  0  0  0  0  0  0
   -0.5817   -1.0844    9.7267 C   0  0  0  0  0  0  0  0  0  0  0  0
   -0.4119   -0.3467   10.8606 C   0  0  0  0  0  0  0  0  0  0  0  0
   -0.9628    0.9325   11.0432 C   0  0  0  0  0  0  0  0  0  0  0  0
   -1.7093    1.4647   10.0275 C   0  0  0  0  0  0  0  0  0  0  0  0
   -1.8811    0.7050    8.8662 C   0  0  0  0  0  0  0  0  0  0  0  0
   -1.3332   -0.5379    8.7154 C   0  0  0  0  0  0  0  0  0  0  0  0
   -0.7117    1.5838   12.2518 N   0  0  0  0  0  0  0  0  0  0  0  0
    0.1046    1.0978   13.3052 C   0  0  0  0  0  0  0  0  0  0  0  0
    1.0551    0.3185   13.0949 O   0  0  0  0  0  0  0  0  0  0  0  0
   -0.1237    1.4793   14.6603 N   0  0  0  0  0  0  0  0  0  0  0  0
    0.8249    2.2128   15.4432 C   0  0  0  0  0  0  0  0  0  0  0  0
    0.2511    3.5366   15.8766 C   0  0  0  0  0  0  0  0  0  0  0  0
    1.2644    4.3504   16.6580 C   0  0  0  0  0  0  0  0  0  0  0  0
    0.8024    4.9731   17.8140 N   0  0  0  0  0  0  0  0  0  0  0  0
    0.5125    4.2453   18.9715 C   0  0  0  0  0  0  0  0  0  0  0  0
    0.5499    5.1007   20.2101 C   0  0  0  0  0  0  0  0  0  0  0  0
    1.5524    6.1902   20.1779 C   0  0  0  0  0  0  0  0  0  0  0  0
    1.6437    6.9221   18.8736 C   0  0  0  0  0  0  0  0  0  0  0  0
    0.6559    6.3752   17.8582 C   0  0  0  0  0  0  0  0  0  0  0  0
    1.1775    7.2022   21.2178 C   0  0  0  0  0  0  0  0  0  0  0  0
    1.2613    8.5606   20.9976 C   0  0  0  0  0  0  0  0  0  0  0  0
    0.9023    9.4412   21.9921 C   0  0  0  0  0  0  0  0  0  0  0  0
    0.4523    9.0240   23.2270 C   0  0  0  0  0  0  0  0  0  0  0  0
    0.3673    7.6805   23.4509 C   0  0  0  0  0  0  0  0  0  0  0  0
    0.7277    6.7803   22.4523 C   0  0  0  0  0  0  0  0  0  0  0  0
    0.9852   10.8031   21.7740 O   0  0  0  0  0  0  0  0  0  0  0  0
    1.6046   11.2677   20.5928 C   0  0  0  0  0  0  0  0  0  0  0  0
    2.0343   -1.4763    8.4472 C   0  0  0  0  0  0  0  0  0  0  0  0
    1.4035   -1.3789    7.3661 O   0  0  0  0  0  0  0  0  0  0  0  0
    3.1775   -0.7381    8.5716 O   0  0  0  0  0  0  0  0  0  0  0  0
    3.2159    0.5689    9.1179 C   0  0  0  0  0  0  0  0  0  0  0  0
  1  2  1  0
  2  3  2  0
  3  4  1  0
  4  5  1  0
  5  6  2  0
  6  7  1  0
  6  8  1  0
  5  9  1  0
  9 10  2  0
  9 11  1  0
 11 12  1  0
  4 13  1  0
 13 14  2  0
 14 15  1  0
 15 16  2  0
 16 17  1  0
 17 18  2  0
 15 19  1  0
 19 20  1  0
 20 21  2  0
 20 22  1  0
 22 23  1  0
 23 24  1  0
 24 25  1  0
 25 26  1  0
 26 27  1  0
 27 28  1  0
 28 29  1  0
 29 30  1  0
 30 31  1  0
 29 32  1  0
 32 33  2  0
 33 34  1  0
 34 35  2  0
 35 36  1  0
 36 37  2  0
 34 38  1  0
 38 39  1  0
  3 40  1  0
 40 41  2  0
 40 42  1  0
 42 43  1  0
  7  2  1  0
 18 13  1  0
 31 26  1  0
 37 32  1  0
M  END
$$$$
