
     RDKit          3D

 43 46  0  0  0  0  0  0  0  0999 V2000
    3.3722   -2.3215    9.6727 C   0  0  0  0  0  0  0  0  0  0  0  0
    1.9929   -2.4383   10.2712 C   0  0  0  0  0  0  0  0  0  0  0  0
    0.9455   -1.8025    9.7775 C   0  0  0  0  0  0  0  0  0  0  0  0
   -0.4221   -1.8881   10.3308 C   0  0  0  0  0  0  0  0  0  0  0  0
   -0.5456   -2.7655   11.5190 C   0  0  0  0  0  0  0  0  0  0  0  0
    0.5075   -3.3976   12.0062 C   0  0  0  0  0  0  0  0  0  0  0  0
    1.7885   -3.2599   11.4120 N   0  0  0  0  0  0  0  0  0  0  0  0
    0.3179   -4.2682   13.2095 C   0  0  0  0  0  0  0  0  0  0  0  0
   -1.8675   -2.9302   12.1654 C   0  0  0  0  0  0  0  0  0  0  0  0
   -2.8800   -2.8893   11.4232 O   0  0  0  0  0  0  0  0  0  0  0  0
   -2.0704   -3.1210   13.4932 O   0  0  0  0  0  0  0  0  0  0  0  0
   -2.4428   -4.3152   14.1120 C   0  0  0  0  0  0  0  0  0  0  0  0
   -0.9846   -0.5315   10.6057 C   0  0  0  0  0  0  0  0  0  0  0  0
   -0.4761    0.2605   11.5922 C   0  0  0  0  0  0  0  0  0  0  0  0
   -0.9726    1.5396   11.8929 C   0  0  0  0  0  0  0  0  0  0  0  0
   -2.0226    2.0143   11.1550 C   0  0  0  0  0  0  0  0  0  0  0  0
   -2.5412    1.1990   10.1441 C   0  0  0  0  0  0  0  0  0  0  0  0
   -2.0382   -0.0424    9.8730 C   0  0  0  0  0  0  0  0  0  0  0  0
   -0.3608    2.2498   12.9269 N   0  0  0  0  0  0  0  0  0  0  0  0
   -0.6901    3.5660   13.3410 C   0  0  0  0  0  0  0  0  0  0  0  0
   -1.8101    4.0657   13.1156 O   0  0  0  0  0  0  0  0  0  0  0  0
    0.2480    4.3835   14.0380 N   0  0  0  0  0  0  0  0  0  0  0  0
    0.1403    4.6938   15.4318 C   0  0  0  0  0  0  0  0  0  0  0  0
    0.9471    3.7270   16.2589 C   0  0  0  0  0  0  0  0  0  0  0  0
    0.9925    4.1475   17.7151 C   0  0  0  0  0  0  0  0  0  0  0  0
    2.2521    4.2097   18.3047 N   0  0  0  0  0  0  0  0  0  0  0  0
    3.2720    5.0018   17.7700 C   0  0  0  0  0  0  0  0  0  0  0  0
    4.3231    5.3479   18.7912 C   0  0  0  0  0  0  0  0  0  0  0  0
    3.8106    5.5230   20.1696 C   0  0  0  0  0  0  0  0  0  0  0  0
    2.7926    4.5093   20.5954 C   0  0  0  0  0  0  0  0  0  0  0  0
    2.5177    3.5002   19.4943 C   0  0  0  0  0  0  0  0  0  0  0  0
    4.9654    5.4024   21.1172 C   0  0  0  0  0  0  0  0  0  0  0  0
    4.8024    5.3517   22.4853 C   0  0  0  0  0  0  0  0  0  0  0  0
    5.9023    5.2403   23.3045 C   0  0  0  0  0  0  0  0  0  0  0  0
    7.1898    5.1755   22.8149 C   0  0  0  0  0  0  0  0  0  0  0  0
    7.3575    5.2253   21.4615 C   0  0  0  0  0  0  0  0  0  0  0  0
    6.2523    5.3378   20.6230 C   0  0  0  0  0  0  0  0  0  0  0  0
    5.7417    5.1892   24.6760 O   0  0  0  0  0  0  0  0  0  0  0  0
    4.8987    6.1355   25.2992 C   0  0  0  0  0  0  0  0  0  0  0  0
    1.1175   -0.9420    8.5940 C   0  0  0  0  0  0  0  0  0  0  0  0
    0.1457   -0.8169    7.8092 O   0  0  0  0  0  0  0  0  0  0  0  0
    2.2626   -0.2645    8.2827 O   0  0  0  0  0  0  0  0  0  0  0  0
    2.4301    0.4983    7.1001 C   0  0  0  0  0  0  0  0  0  0  0  0
  1  2  1  0
  2  3  2  0
  3  4  1  0
  4  5  1  0
  5  6  2  0
  6  7  1  0
  6  8  1  0
  5  9  1  0
  9 10  2  0
  9 11  1  0
 11 12  1  0
  4 13  1  0
 13 14  2  0
 14 15  1  0
 15 16  2  0
 16 17  1  0
 17 18  2  0
 15 19  1  0
 19 20  1  0
 20 21  2  0
 20 22  1  0
 22 23  1  0
 23 24  1  0
 24 25  1  0
 25 26  1  0
 26 27  1  0
 27 28  1  0
 28 29  1  0
 29 30  1  0
 30 31  1  0
 29 32  1  0
 32 33  2  0
 33 34  1  0
 34 35  2  0
 35 36  1  0
 36 37  2  0
 34 38  1  0
 38 39  1  0
  3 40  1  0
 40 41  2  0
 40 42  1  0
 42 43  1  0
  7  2  1  0
 18 13  1  0
 31 26  1  0
 37 32  1  0
M  END
$$$$
