
     RDKit          3D

 43 46  0  0  0  0  0  0  0  0999 V2000
    3.6321   -0.8384    9.4098 C   0  0  0  0  0  0  0  0  0  0  0  0
    2.3499   -1.5634    9.7335 C   0  0  0  0  0  0  0  0  0  0  0  0
    1.1699   -0.9701    9.7091 C   0  0  0  0  0  0  0  0  0  0  0  0
   -0.1101   -1.6408   10.0184 C   0  0  0  0  0  0  0  0  0  0  0  0
    0.0221   -3.0744   10.3708 C   0  0  0  0  0  0  0  0  0  0  0  0
    1.2065   -3.6598   10.3928 C   0  0  0  0  0  0  0  0  0  0  0  0
    2.3890   -2.9403   10.0812 N   0  0  0  0  0  0  0  0  0  0  0  0
    1.2739   -5.1103   10.7582 C   0  0  0  0  0  0  0  0  0  0  0  0
   -1.1913   -3.8550   10.7036 C   0  0  0  0  0  0  0  0  0  0  0  0
   -2.0195   -3.3255   11.4856 O   0  0  0  0  0  0  0  0  0  0  0  0
   -1.4779   -5.0942   10.2317 O   0  0  0  0  0  0  0  0  0  0  0  0
   -1.9541   -5.4067    8.9576 C   0  0  0  0  0  0  0  0  0  0  0  0
   -0.8743   -0.8996   11.0666 C   0  0  0  0  0  0  0  0  0  0  0  0
   -0.2578   -0.4067   12.1783 C   0  0  0  0  0  0  0  0  0  0  0  0
   -0.9321    0.2915   13.1936 C   0  0  0  0  0  0  0  0  0  0  0  0
   -2.2796    0.4864   13.0576 C   0  0  0  0  0  0  0  0  0  0  0  0
   -2.9082   -0.0206   11.9160 C   0  0  0  0  0  0  0  0  0  0  0  0
   -2.2270   -0.6967   10.9431 C   0  0  0  0  0  0  0  0  0  0  0  0
   -0.1832    0.7465   14.2799 N   0  0  0  0  0  0  0  0  0  0  0  0
   -0.7020    1.1579   15.5345 C   0  0  0  0  0  0  0  0  0  0  0  0
   -1.9256    1.3058   15.7238 O   0  0  0  0  0  0  0  0  0  0  0  0
    0.1549    1.4223   16.6435 N   0  0  0  0  0  0  0  0  0  0  0  0
    1.2311    2.3660   16.6006 C   0  0  0  0  0  0  0  0  0  0  0  0
    1.1279    3.3471   17.7392 C   0  0  0  0  0  0  0  0  0  0  0  0
    1.9826    4.5750   17.4917 C   0  0  0  0  0  0  0  0  0  0  0  0
    2.6208    5.1216   18.6015 N   0  0  0  0  0  0  0  0  0  0  0  0
    2.8586    6.4949   18.7063 C   0  0  0  0  0  0  0  0  0  0  0  0
    3.0512    6.9354   20.1333 C   0  0  0  0  0  0  0  0  0  0  0  0
    2.2501    6.1823   21.1253 C   0  0  0  0  0  0  0  0  0  0  0  0
    2.1983    4.7020   20.8982 C   0  0  0  0  0  0  0  0  0  0  0  0
    3.0077    4.2974   19.6787 C   0  0  0  0  0  0  0  0  0  0  0  0
    2.8614    6.3924   22.4774 C   0  0  0  0  0  0  0  0  0  0  0  0
    2.6031    7.5083   23.2448 C   0  0  0  0  0  0  0  0  0  0  0  0
    3.1947    7.6448   24.4796 C   0  0  0  0  0  0  0  0  0  0  0  0
    4.0533    6.6998   25.0006 C   0  0  0  0  0  0  0  0  0  0  0  0
    4.3129    5.5930   24.2455 C   0  0  0  0  0  0  0  0  0  0  0  0
    3.7201    5.4442   22.9950 C   0  0  0  0  0  0  0  0  0  0  0  0
    2.9375    8.7620   25.2509 O   0  0  0  0  0  0  0  0  0  0  0  0
    3.7253    8.9930   26.4001 C   0  0  0  0  0  0  0  0  0  0  0  0
    1.0887    0.4569    9.3518 C   0  0  0  0  0  0  0  0  0  0  0  0
    0.0794    1.1025    9.7268 O   0  0  0  0  0  0  0  0  0  0  0  0
    2.0351    1.1368    8.6381 O   0  0  0  0  0  0  0  0  0  0  0  0
    1.9866    1.3127    7.2327 C   0  0  0  0  0  0  0  0  0  0  0  0
  1  2  1  0
  2  3  2  0
  3  4  1  0
  4  5  1  0
  5  6  2  0
  6  7  1  0
  6  8  1  0
  5  9  1  0
  9 10  2  0
  9 11  1  0
 11 12  1  0
  4 13  1  0
 13 14  2  0
 14 15  1  0
 15 16  2  0
 16 17  1  0
 17 18  2  0
 15 19  1  0
 19 20  1  0
 20 21  2  0
 20 22  1  0
 22 23  1  0
 23 24  1  0
 24 25  1  0
 25 26  1  0
 26 27  1  0
 27 28  1  0
 28 29  1  0
 29 30  1  0
 30 31  1  0
 29 32  1  0
 32 33  2  0
 33 34  1  0
 34 35  2  0
 35 36  1  0
 36 37  2  0
 34 38  1  0
 38 39  1  0
  3 40  1  0
 40 41  2  0
 40 42  1  0
 42 43  1  0
  7  2  1  0
 18 13  1  0
 31 26  1  0
 37 32  1  0
M  END
$$$$
