
     RDKit          3D

 43 46  0  0  0  0  0  0  0  0999 V2000
    5.8681    5.9841   21.3196 C   0  0  0  0  0  0  0  0  0  0  0  0
    4.3918    5.9713   21.0117 C   0  0  0  0  0  0  0  0  0  0  0  0
    3.8058    4.9754   20.3715 C   0  0  0  0  0  0  0  0  0  0  0  0
    2.3645    4.9211   20.0493 C   0  0  0  0  0  0  0  0  0  0  0  0
    1.5922    6.1001   20.5081 C   0  0  0  0  0  0  0  0  0  0  0  0
    2.1866    7.0917   21.1477 C   0  0  0  0  0  0  0  0  0  0  0  0
    3.5792    7.0637   21.4173 N   0  0  0  0  0  0  0  0  0  0  0  0
    1.3516    8.2556   21.5840 C   0  0  0  0  0  0  0  0  0  0  0  0
    0.1370    6.1630   20.2415 C   0  0  0  0  0  0  0  0  0  0  0  0
   -0.5509    5.1629   20.5646 O   0  0  0  0  0  0  0  0  0  0  0  0
   -0.5099    7.2133   19.6768 O   0  0  0  0  0  0  0  0  0  0  0  0
   -1.6826    7.8112   20.1402 C   0  0  0  0  0  0  0  0  0  0  0  0
    2.1406    4.6670   18.5942 C   0  0  0  0  0  0  0  0  0  0  0  0
    1.5195    3.5338   18.1595 C   0  0  0  0  0  0  0  0  0  0  0  0
    1.2903    3.2465   16.8038 C   0  0  0  0  0  0  0  0  0  0  0  0
    1.7137    4.1538   15.8712 C   0  0  0  0  0  0  0  0  0  0  0  0
    2.3503    5.3148   16.3210 C   0  0  0  0  0  0  0  0  0  0  0  0
    2.5603    5.5689   17.6473 C   0  0  0  0  0  0  0  0  0  0  0  0
    0.6409    2.0512   16.4915 N   0  0  0  0  0  0  0  0  0  0  0  0
    0.4173    1.5418   15.1865 C   0  0  0  0  0  0  0  0  0  0  0  0
    0.8141    2.1432   14.1687 O   0  0  0  0  0  0  0  0  0  0  0  0
   -0.2744    0.3125   14.9760 N   0  0  0  0  0  0  0  0  0  0  0  0
    0.3816   -0.9107   14.6239 C   0  0  0  0  0  0  0  0  0  0  0  0
   -0.3049   -1.5688   13.4554 C   0  0  0  0  0  0  0  0  0  0  0  0
    0.3413   -1.1766   12.1408 C   0  0  0  0  0  0  0  0  0  0  0  0
    0.5442   -2.1997   11.2189 N   0  0  0  0  0  0  0  0  0  0  0  0
    0.6326   -3.5366   11.6169 C   0  0  0  0  0  0  0  0  0  0  0  0
    0.3207   -4.4901   10.4940 C   0  0  0  0  0  0  0  0  0  0  0  0
   -0.6995   -4.0041    9.5369 C   0  0  0  0  0  0  0  0  0  0  0  0
   -0.5650   -2.5619    9.1531 C   0  0  0  0  0  0  0  0  0  0  0  0
    0.6226   -1.9115    9.8405 C   0  0  0  0  0  0  0  0  0  0  0  0
   -0.5751   -4.8023    8.2745 C   0  0  0  0  0  0  0  0  0  0  0  0
   -1.5565   -4.8202    7.3064 C   0  0  0  0  0  0  0  0  0  0  0  0
   -1.3844   -5.5730    6.1676 C   0  0  0  0  0  0  0  0  0  0  0  0
   -0.2533   -6.3284    5.9403 C   0  0  0  0  0  0  0  0  0  0  0  0
    0.7217   -6.3147    6.8951 C   0  0  0  0  0  0  0  0  0  0  0  0
    0.5586   -5.5568    8.0511 C   0  0  0  0  0  0  0  0  0  0  0  0
   -2.3663   -5.5927    5.1957 O   0  0  0  0  0  0  0  0  0  0  0  0
   -2.4999   -6.7415    4.3850 C   0  0  0  0  0  0  0  0  0  0  0  0
    4.6152    3.8241   19.9359 C   0  0  0  0  0  0  0  0  0  0  0  0
    4.3395    3.2927   18.8323 O   0  0  0  0  0  0  0  0  0  0  0  0
    5.6510    3.2860   20.6464 O   0  0  0  0  0  0  0  0  0  0  0  0
    5.4855    2.5534   21.8482 C   0  0  0  0  0  0  0  0  0  0  0  0
  1  2  1  0
  2  3  2  0
  3  4  1  0
  4  5  1  0
  5  6  2  0
  6  7  1  0
  6  8  1  0
  5  9  1  0
  9 10  2  0
  9 11  1  0
 11 12  1  0
  4 13  1  0
 13 14  2  0
 14 15  1  0
 15 16  2  0
 16 17  1  0
 17 18  2  0
 15 19  1  0
 19 20  1  0
 20 21  2  0
 20 22  1  0
 22 23  1  0
 23 24  1  0
 24 25  1  0
 25 26  1  0
 26 27  1  0
 27 28  1  0
 28 29  1  0
 29 30  1  0
 30 31  1  0
 29 32  1  0
 32 33  2  0
 33 34  1  0
 34 35  2  0
 35 36  1  0
 36 37  2  0
 34 38  1  0
 38 39  1  0
  3 40  1  0
 40 41  2  0
 40 42  1  0
 42 43  1  0
  7  2  1  0
 18 13  1  0
 31 26  1  0
 37 32  1  0
M  END
$$$$
