
     RDKit          3D

 43 46  0  0  0  0  0  0  0  0999 V2000
    4.5434   -3.9381    9.6555 C   0  0  0  0  0  0  0  0  0  0  0  0
    3.1328   -3.4576    9.8873 C   0  0  0  0  0  0  0  0  0  0  0  0
    2.8484   -2.2056   10.1980 C   0  0  0  0  0  0  0  0  0  0  0  0
    1.4829   -1.6917   10.4332 C   0  0  0  0  0  0  0  0  0  0  0  0
    0.4153   -2.7102   10.2928 C   0  0  0  0  0  0  0  0  0  0  0  0
    0.7090   -3.9604    9.9819 C   0  0  0  0  0  0  0  0  0  0  0  0
    2.0508   -4.3709    9.7719 N   0  0  0  0  0  0  0  0  0  0  0  0
   -0.4143   -4.9425    9.8563 C   0  0  0  0  0  0  0  0  0  0  0  0
   -0.9960   -2.3168   10.5071 C   0  0  0  0  0  0  0  0  0  0  0  0
   -1.2363   -1.0924   10.6516 O   0  0  0  0  0  0  0  0  0  0  0  0
   -2.0471   -3.1728   10.5599 O   0  0  0  0  0  0  0  0  0  0  0  0
   -2.7369   -3.5693   11.7065 C   0  0  0  0  0  0  0  0  0  0  0  0
    1.3840   -0.9895   11.7483 C   0  0  0  0  0  0  0  0  0  0  0  0
    0.4651   -0.0045   11.9589 C   0  0  0  0  0  0  0  0  0  0  0  0
    0.3358    0.6885   13.1739 C   0  0  0  0  0  0  0  0  0  0  0  0
    1.1781    0.3555   14.1995 C   0  0  0  0  0  0  0  0  0  0  0  0
    2.1191   -0.6552   13.9796 C   0  0  0  0  0  0  0  0  0  0  0  0
    2.2228   -1.3134   12.7864 C   0  0  0  0  0  0  0  0  0  0  0  0
   -0.6480    1.6746   13.2603 N   0  0  0  0  0  0  0  0  0  0  0  0
   -1.0081    2.3905   14.4309 C   0  0  0  0  0  0  0  0  0  0  0  0
   -0.3631    2.2824   15.4927 O   0  0  0  0  0  0  0  0  0  0  0  0
   -2.1294    3.2717   14.4489 N   0  0  0  0  0  0  0  0  0  0  0  0
   -2.3709    4.2188   15.4955 C   0  0  0  0  0  0  0  0  0  0  0  0
   -3.5946    5.0453   15.1970 C   0  0  0  0  0  0  0  0  0  0  0  0
   -3.2318    6.4904   14.9149 C   0  0  0  0  0  0  0  0  0  0  0  0
   -3.6290    7.4273   15.8647 N   0  0  0  0  0  0  0  0  0  0  0  0
   -2.7082    8.2766   16.4846 C   0  0  0  0  0  0  0  0  0  0  0  0
   -3.3569    9.5166   17.0404 C   0  0  0  0  0  0  0  0  0  0  0  0
   -4.5063   10.0181   16.2525 C   0  0  0  0  0  0  0  0  0  0  0  0
   -5.4403    8.9561   15.7574 C   0  0  0  0  0  0  0  0  0  0  0  0
   -4.9924    7.5727   16.1953 C   0  0  0  0  0  0  0  0  0  0  0  0
   -5.3114   10.9302   17.1277 C   0  0  0  0  0  0  0  0  0  0  0  0
   -4.7339   11.7765   18.0502 C   0  0  0  0  0  0  0  0  0  0  0  0
   -5.5266   12.5913   18.8255 C   0  0  0  0  0  0  0  0  0  0  0  0
   -6.9017   12.6045   18.7241 C   0  0  0  0  0  0  0  0  0  0  0  0
   -7.4792   11.7689   17.8127 C   0  0  0  0  0  0  0  0  0  0  0  0
   -6.6874   10.9402   17.0229 C   0  0  0  0  0  0  0  0  0  0  0  0
   -4.9504   13.4405   19.7508 O   0  0  0  0  0  0  0  0  0  0  0  0
   -5.4726   13.4743   21.0626 C   0  0  0  0  0  0  0  0  0  0  0  0
    3.9438   -1.2286   10.3255 C   0  0  0  0  0  0  0  0  0  0  0  0
    5.1234   -1.6521   10.2543 O   0  0  0  0  0  0  0  0  0  0  0  0
    3.7728    0.1136   10.5166 O   0  0  0  0  0  0  0  0  0  0  0  0
    4.0964    1.0951    9.5469 C   0  0  0  0  0  0  0  0  0  0  0  0
  1  2  1  0
  2  3  2  0
  3  4  1  0
  4  5  1  0
  5  6  2  0
  6  7  1  0
  6  8  1  0
  5  9  1  0
  9 10  2  0
  9 11  1  0
 11 12  1  0
  4 13  1  0
 13 14  2  0
 14 15  1  0
 15 16  2  0
 16 17  1  0
 17 18  2  0
 15 19  1  0
 19 20  1  0
 20 21  2  0
 20 22  1  0
 22 23  1  0
 23 24  1  0
 24 25  1  0
 25 26  1  0
 26 27  1  0
 27 28  1  0
 28 29  1  0
 29 30  1  0
 30 31  1  0
 29 32  1  0
 32 33  2  0
 33 34  1  0
 34 35  2  0
 35 36  1  0
 36 37  2  0
 34 38  1  0
 38 39  1  0
  3 40  1  0
 40 41  2  0
 40 42  1  0
 42 43  1  0
  7  2  1  0
 18 13  1  0
 31 26  1  0
 37 32  1  0
M  END
$$$$
