
     RDKit          3D

 43 46  0  0  0  0  0  0  0  0999 V2000
    3.6307   -2.1410   10.0813 C   0  0  0  0  0  0  0  0  0  0  0  0
    2.1902   -2.4984   10.3490 C   0  0  0  0  0  0  0  0  0  0  0  0
    1.1855   -1.7113   10.0087 C   0  0  0  0  0  0  0  0  0  0  0  0
   -0.2391   -2.0212   10.2510 C   0  0  0  0  0  0  0  0  0  0  0  0
   -0.4745   -3.3198   10.9256 C   0  0  0  0  0  0  0  0  0  0  0  0
    0.5366   -4.1008   11.2626 C   0  0  0  0  0  0  0  0  0  0  0  0
    1.8780   -3.7262   10.9919 N   0  0  0  0  0  0  0  0  0  0  0  0
    0.2332   -5.3996   11.9432 C   0  0  0  0  0  0  0  0  0  0  0  0
   -1.8620   -3.7410   11.2252 C   0  0  0  0  0  0  0  0  0  0  0  0
   -2.0236   -4.5699   12.1550 O   0  0  0  0  0  0  0  0  0  0  0  0
   -2.9697   -3.3034   10.5755 O   0  0  0  0  0  0  0  0  0  0  0  0
   -3.8971   -4.0925    9.8936 C   0  0  0  0  0  0  0  0  0  0  0  0
   -0.9230   -0.9086   10.9767 C   0  0  0  0  0  0  0  0  0  0  0  0
   -0.4376   -0.4275   12.1565 C   0  0  0  0  0  0  0  0  0  0  0  0
   -1.0462    0.6121   12.8789 C   0  0  0  0  0  0  0  0  0  0  0  0
   -2.1868    1.1705   12.3696 C   0  0  0  0  0  0  0  0  0  0  0  0
   -2.6813    0.6743   11.1593 C   0  0  0  0  0  0  0  0  0  0  0  0
   -2.0684   -0.3390   10.4771 C   0  0  0  0  0  0  0  0  0  0  0  0
   -0.4464    1.0138   14.0735 N   0  0  0  0  0  0  0  0  0  0  0  0
   -1.0365    1.8399   15.0643 C   0  0  0  0  0  0  0  0  0  0  0  0
   -2.1381    2.3964   14.8861 O   0  0  0  0  0  0  0  0  0  0  0  0
   -0.3953    2.0737   16.3166 N   0  0  0  0  0  0  0  0  0  0  0  0
   -0.0073    3.3745   16.7727 C   0  0  0  0  0  0  0  0  0  0  0  0
    1.4933    3.5043   16.8050 C   0  0  0  0  0  0  0  0  0  0  0  0
    1.9199    4.8965   17.2284 C   0  0  0  0  0  0  0  0  0  0  0  0
    2.8816    4.9733   18.2319 N   0  0  0  0  0  0  0  0  0  0  0  0
    4.2092    5.3064   17.9492 C   0  0  0  0  0  0  0  0  0  0  0  0
    4.9335    5.8449   19.1546 C   0  0  0  0  0  0  0  0  0  0  0  0
    4.0888    6.6328   20.0813 C   0  0  0  0  0  0  0  0  0  0  0  0
    2.7297    6.0561   20.3375 C   0  0  0  0  0  0  0  0  0  0  0  0
    2.5245    4.7566   19.5790 C   0  0  0  0  0  0  0  0  0  0  0  0
    4.7868    6.7032   21.4057 C   0  0  0  0  0  0  0  0  0  0  0  0
    4.1682    7.1637   22.5485 C   0  0  0  0  0  0  0  0  0  0  0  0
    4.8618    7.2044   23.7363 C   0  0  0  0  0  0  0  0  0  0  0  0
    6.1752    6.7983   23.8438 C   0  0  0  0  0  0  0  0  0  0  0  0
    6.7928    6.3415   22.7159 C   0  0  0  0  0  0  0  0  0  0  0  0
    6.1012    6.2957   21.5089 C   0  0  0  0  0  0  0  0  0  0  0  0
    4.2442    7.6654   24.8831 O   0  0  0  0  0  0  0  0  0  0  0  0
    4.9006    7.5028   26.1231 C   0  0  0  0  0  0  0  0  0  0  0  0
    1.4693   -0.4302    9.3389 C   0  0  0  0  0  0  0  0  0  0  0  0
    0.4992    0.2297    8.8921 O   0  0  0  0  0  0  0  0  0  0  0  0
    2.7171    0.0991    9.1654 O   0  0  0  0  0  0  0  0  0  0  0  0
    3.3766    0.1681    7.9129 C   0  0  0  0  0  0  0  0  0  0  0  0
  1  2  1  0
  2  3  2  0
  3  4  1  0
  4  5  1  0
  5  6  2  0
  6  7  1  0
  6  8  1  0
  5  9  1  0
  9 10  2  0
  9 11  1  0
 11 12  1  0
  4 13  1  0
 13 14  2  0
 14 15  1  0
 15 16  2  0
 16 17  1  0
 17 18  2  0
 15 19  1  0
 19 20  1  0
 20 21  2  0
 20 22  1  0
 22 23  1  0
 23 24  1  0
 24 25  1  0
 25 26  1  0
 26 27  1  0
 27 28  1  0
 28 29  1  0
 29 30  1  0
 30 31  1  0
 29 32  1  0
 32 33  2  0
 33 34  1  0
 34 35  2  0
 35 36  1  0
 36 37  2  0
 34 38  1  0
 38 39  1  0
  3 40  1  0
 40 41  2  0
 40 42  1  0
 42 43  1  0
  7  2  1  0
 18 13  1  0
 31 26  1  0
 37 32  1  0
M  END
$$$$
