
     RDKit          3D

 43 46  0  0  0  0  0  0  0  0999 V2000
   -3.0130   -5.2115    7.8894 C   0  0  0  0  0  0  0  0  0  0  0  0
   -1.6442   -5.0297    8.4957 C   0  0  0  0  0  0  0  0  0  0  0  0
   -1.4295   -4.2731    9.5570 C   0  0  0  0  0  0  0  0  0  0  0  0
   -0.1070   -4.0670   10.1836 C   0  0  0  0  0  0  0  0  0  0  0  0
    1.0024   -4.7908    9.5186 C   0  0  0  0  0  0  0  0  0  0  0  0
    0.7785   -5.5454    8.4574 C   0  0  0  0  0  0  0  0  0  0  0  0
   -0.5261   -5.6894    7.9186 N   0  0  0  0  0  0  0  0  0  0  0  0
    1.9414   -6.2497    7.8299 C   0  0  0  0  0  0  0  0  0  0  0  0
    2.3771   -4.6612   10.0533 C   0  0  0  0  0  0  0  0  0  0  0  0
    3.2269   -4.0925    9.3238 O   0  0  0  0  0  0  0  0  0  0  0  0
    2.7899   -5.1079   11.2660 O   0  0  0  0  0  0  0  0  0  0  0  0
    2.4101   -6.3003   11.8837 C   0  0  0  0  0  0  0  0  0  0  0  0
    0.2092   -2.6134   10.3232 C   0  0  0  0  0  0  0  0  0  0  0  0
    0.3498   -2.0329   11.5488 C   0  0  0  0  0  0  0  0  0  0  0  0
    0.6413   -0.6712   11.7330 C   0  0  0  0  0  0  0  0  0  0  0  0
    0.7919    0.1126   10.6216 C   0  0  0  0  0  0  0  0  0  0  0  0
    0.6470   -0.4866    9.3664 C   0  0  0  0  0  0  0  0  0  0  0  0
    0.3630   -1.8149    9.2165 C   0  0  0  0  0  0  0  0  0  0  0  0
    0.7620   -0.2016   13.0417 N   0  0  0  0  0  0  0  0  0  0  0  0
    1.1980    1.0929   13.4245 C   0  0  0  0  0  0  0  0  0  0  0  0
    1.3349    2.0132   12.5943 O   0  0  0  0  0  0  0  0  0  0  0  0
    1.5015    1.4045   14.7827 N   0  0  0  0  0  0  0  0  0  0  0  0
    1.0744    2.6086   15.4295 C   0  0  0  0  0  0  0  0  0  0  0  0
    0.3360    3.5005   14.4657 C   0  0  0  0  0  0  0  0  0  0  0  0
   -0.9282    4.0616   15.0875 C   0  0  0  0  0  0  0  0  0  0  0  0
   -0.8171    5.3025   15.7085 N   0  0  0  0  0  0  0  0  0  0  0  0
   -1.8754    6.2154   15.7141 C   0  0  0  0  0  0  0  0  0  0  0  0
   -1.7648    7.2132   16.8363 C   0  0  0  0  0  0  0  0  0  0  0  0
   -1.1583    6.6810   18.0781 C   0  0  0  0  0  0  0  0  0  0  0  0
    0.0337    5.7979   17.8672 C   0  0  0  0  0  0  0  0  0  0  0  0
    0.3654    5.6536   16.3923 C   0  0  0  0  0  0  0  0  0  0  0  0
   -0.6977    7.8405   18.9084 C   0  0  0  0  0  0  0  0  0  0  0  0
    0.4859    7.8250   19.6153 C   0  0  0  0  0  0  0  0  0  0  0  0
    0.8554    8.9213   20.3603 C   0  0  0  0  0  0  0  0  0  0  0  0
    0.0837   10.0614   20.4375 C   0  0  0  0  0  0  0  0  0  0  0  0
   -1.0890   10.0827   19.7398 C   0  0  0  0  0  0  0  0  0  0  0  0
   -1.4731    8.9796   18.9829 C   0  0  0  0  0  0  0  0  0  0  0  0
    2.0411    8.9085   21.0697 O   0  0  0  0  0  0  0  0  0  0  0  0
    2.2717    7.8650   21.9931 C   0  0  0  0  0  0  0  0  0  0  0  0
   -2.5643   -3.5738   10.1843 C   0  0  0  0  0  0  0  0  0  0  0  0
   -2.3269   -2.5215   10.8265 O   0  0  0  0  0  0  0  0  0  0  0  0
   -3.8656   -3.9859   10.1202 O   0  0  0  0  0  0  0  0  0  0  0  0
   -4.4971   -4.7611   11.1245 C   0  0  0  0  0  0  0  0  0  0  0  0
  1  2  1  0
  2  3  2  0
  3  4  1  0
  4  5  1  0
  5  6  2  0
  6  7  1  0
  6  8  1  0
  5  9  1  0
  9 10  2  0
  9 11  1  0
 11 12  1  0
  4 13  1  0
 13 14  2  0
 14 15  1  0
 15 16  2  0
 16 17  1  0
 17 18  2  0
 15 19  1  0
 19 20  1  0
 20 21  2  0
 20 22  1  0
 22 23  1  0
 23 24  1  0
 24 25  1  0
 25 26  1  0
 26 27  1  0
 27 28  1  0
 28 29  1  0
 29 30  1  0
 30 31  1  0
 29 32  1  0
 32 33  2  0
 33 34  1  0
 34 35  2  0
 35 36  1  0
 36 37  2  0
 34 38  1  0
 38 39  1  0
  3 40  1  0
 40 41  2  0
 40 42  1  0
 42 43  1  0
  7  2  1  0
 18 13  1  0
 31 26  1  0
 37 32  1  0
M  END
$$$$
