
     RDKit          3D

 43 46  0  0  0  0  0  0  0  0999 V2000
    3.9183   -2.6366    9.7479 C   0  0  0  0  0  0  0  0  0  0  0  0
    2.4556   -2.8134   10.0700 C   0  0  0  0  0  0  0  0  0  0  0  0
    1.5145   -2.0412    9.5571 C   0  0  0  0  0  0  0  0  0  0  0  0
    0.0713   -2.1785    9.8443 C   0  0  0  0  0  0  0  0  0  0  0  0
   -0.2625   -3.2789   10.7795 C   0  0  0  0  0  0  0  0  0  0  0  0
    0.6854   -4.0463   11.2879 C   0  0  0  0  0  0  0  0  0  0  0  0
    2.0507   -3.8456   10.9581 N   0  0  0  0  0  0  0  0  0  0  0  0
    0.2839   -5.1402   12.2282 C   0  0  0  0  0  0  0  0  0  0  0  0
   -1.6773   -3.5151   11.1469 C   0  0  0  0  0  0  0  0  0  0  0  0
   -2.5401   -2.7669   10.6241 O   0  0  0  0  0  0  0  0  0  0  0  0
   -2.1136   -4.4736   12.0023 O   0  0  0  0  0  0  0  0  0  0  0  0
   -2.9218   -5.5652   11.6819 C   0  0  0  0  0  0  0  0  0  0  0  0
   -0.5178   -0.8855   10.3061 C   0  0  0  0  0  0  0  0  0  0  0  0
   -0.2949   -0.4146   11.5661 C   0  0  0  0  0  0  0  0  0  0  0  0
   -0.8297    0.7912   12.0491 C   0  0  0  0  0  0  0  0  0  0  0  0
   -1.6160    1.5310   11.2086 C   0  0  0  0  0  0  0  0  0  0  0  0
   -1.8422    1.0446    9.9171 C   0  0  0  0  0  0  0  0  0  0  0  0
   -1.3088   -0.1327    9.4732 C   0  0  0  0  0  0  0  0  0  0  0  0
   -0.5229    1.1617   13.3593 N   0  0  0  0  0  0  0  0  0  0  0  0
   -1.3271    1.9668   14.2064 C   0  0  0  0  0  0  0  0  0  0  0  0
   -2.4380    2.4003   13.8415 O   0  0  0  0  0  0  0  0  0  0  0  0
   -0.9017    2.3195   15.5211 N   0  0  0  0  0  0  0  0  0  0  0  0
    0.1596    3.2442   15.7846 C   0  0  0  0  0  0  0  0  0  0  0  0
   -0.3895    4.5868   16.1915 C   0  0  0  0  0  0  0  0  0  0  0  0
   -0.3561    4.7658   17.6969 C   0  0  0  0  0  0  0  0  0  0  0  0
    0.6581    5.5732   18.2041 N   0  0  0  0  0  0  0  0  0  0  0  0
    1.0272    6.7660   17.5760 C   0  0  0  0  0  0  0  0  0  0  0  0
    1.7205    7.7170   18.5153 C   0  0  0  0  0  0  0  0  0  0  0  0
    1.2391    7.6632   19.9148 C   0  0  0  0  0  0  0  0  0  0  0  0
    0.9952    6.2823   20.4430 C   0  0  0  0  0  0  0  0  0  0  0  0
    1.3150    5.2237   19.4022 C   0  0  0  0  0  0  0  0  0  0  0  0
    2.2820    8.2855   20.7928 C   0  0  0  0  0  0  0  0  0  0  0  0
    3.3183    9.0450   20.2927 C   0  0  0  0  0  0  0  0  0  0  0  0
    4.2458    9.5910   21.1500 C   0  0  0  0  0  0  0  0  0  0  0  0
    4.1901    9.4126   22.5162 C   0  0  0  0  0  0  0  0  0  0  0  0
    3.1666    8.6617   23.0172 C   0  0  0  0  0  0  0  0  0  0  0  0
    2.2224    8.1045   22.1596 C   0  0  0  0  0  0  0  0  0  0  0  0
    5.2853   10.3526   20.6514 O   0  0  0  0  0  0  0  0  0  0  0  0
    6.5814   10.1667   21.1809 C   0  0  0  0  0  0  0  0  0  0  0  0
    1.8951   -0.9606    8.6309 C   0  0  0  0  0  0  0  0  0  0  0  0
    1.1841   -0.7787    7.6123 O   0  0  0  0  0  0  0  0  0  0  0  0
    2.9710   -0.1347    8.7967 O   0  0  0  0  0  0  0  0  0  0  0  0
    2.8669    1.2640    8.9994 C   0  0  0  0  0  0  0  0  0  0  0  0
  1  2  1  0
  2  3  2  0
  3  4  1  0
  4  5  1  0
  5  6  2  0
  6  7  1  0
  6  8  1  0
  5  9  1  0
  9 10  2  0
  9 11  1  0
 11 12  1  0
  4 13  1  0
 13 14  2  0
 14 15  1  0
 15 16  2  0
 16 17  1  0
 17 18  2  0
 15 19  1  0
 19 20  1  0
 20 21  2  0
 20 22  1  0
 22 23  1  0
 23 24  1  0
 24 25  1  0
 25 26  1  0
 26 27  1  0
 27 28  1  0
 28 29  1  0
 29 30  1  0
 30 31  1  0
 29 32  1  0
 32 33  2  0
 33 34  1  0
 34 35  2  0
 35 36  1  0
 36 37  2  0
 34 38  1  0
 38 39  1  0
  3 40  1  0
 40 41  2  0
 40 42  1  0
 42 43  1  0
  7  2  1  0
 18 13  1  0
 31 26  1  0
 37 32  1  0
M  END
$$$$
