
     RDKit          3D

 43 46  0  0  0  0  0  0  0  0999 V2000
    0.4415   -4.2593    7.3082 C   0  0  0  0  0  0  0  0  0  0  0  0
    0.4827   -4.0199    8.7966 C   0  0  0  0  0  0  0  0  0  0  0  0
    0.0589   -2.8978    9.3500 C   0  0  0  0  0  0  0  0  0  0  0  0
    0.0802   -2.6210   10.8015 C   0  0  0  0  0  0  0  0  0  0  0  0
    0.6285   -3.7247   11.6250 C   0  0  0  0  0  0  0  0  0  0  0  0
    1.0503   -4.8436   11.0629 C   0  0  0  0  0  0  0  0  0  0  0  0
    0.9937   -5.0280    9.6573 N   0  0  0  0  0  0  0  0  0  0  0  0
    1.5951   -5.9207   11.9490 C   0  0  0  0  0  0  0  0  0  0  0  0
    0.7043   -3.5650   13.0951 C   0  0  0  0  0  0  0  0  0  0  0  0
   -0.2379   -2.9528   13.6566 O   0  0  0  0  0  0  0  0  0  0  0  0
    1.7092   -4.0264   13.8811 O   0  0  0  0  0  0  0  0  0  0  0  0
    1.7802   -3.9400   15.2722 C   0  0  0  0  0  0  0  0  0  0  0  0
    0.7758   -1.3329   11.1004 C   0  0  0  0  0  0  0  0  0  0  0  0
    0.5530   -0.6603   12.2652 C   0  0  0  0  0  0  0  0  0  0  0  0
    1.1773    0.5553   12.5903 C   0  0  0  0  0  0  0  0  0  0  0  0
    2.0557    1.0912   11.6884 C   0  0  0  0  0  0  0  0  0  0  0  0
    2.2815    0.3983   10.4949 C   0  0  0  0  0  0  0  0  0  0  0  0
    1.6598   -0.7835   10.2043 C   0  0  0  0  0  0  0  0  0  0  0  0
    0.8639    1.1413   13.8176 N   0  0  0  0  0  0  0  0  0  0  0  0
    1.4238    2.3372   14.3360 C   0  0  0  0  0  0  0  0  0  0  0  0
    1.9796    3.1764   13.5999 O   0  0  0  0  0  0  0  0  0  0  0  0
    1.3771    2.6378   15.7294 N   0  0  0  0  0  0  0  0  0  0  0  0
    1.4716    3.9675   16.2524 C   0  0  0  0  0  0  0  0  0  0  0  0
    0.3360    4.2512   17.2009 C   0  0  0  0  0  0  0  0  0  0  0  0
    0.2610    5.7249   17.5502 C   0  0  0  0  0  0  0  0  0  0  0  0
    0.7317    6.0898   18.8084 N   0  0  0  0  0  0  0  0  0  0  0  0
    1.2805    7.3530   19.0464 C   0  0  0  0  0  0  0  0  0  0  0  0
    1.2306    7.7338   20.5024 C   0  0  0  0  0  0  0  0  0  0  0  0
    0.0494    7.2217   21.2343 C   0  0  0  0  0  0  0  0  0  0  0  0
   -0.3232    5.8060   20.9145 C   0  0  0  0  0  0  0  0  0  0  0  0
    0.6243    5.1977   19.8955 C   0  0  0  0  0  0  0  0  0  0  0  0
    0.3507    7.2700   22.7016 C   0  0  0  0  0  0  0  0  0  0  0  0
    0.2208    6.1710   23.5239 C   0  0  0  0  0  0  0  0  0  0  0  0
    0.5129    6.2776   24.8643 C   0  0  0  0  0  0  0  0  0  0  0  0
    0.9389    7.4558   25.4404 C   0  0  0  0  0  0  0  0  0  0  0  0
    1.0693    8.5472   24.6315 C   0  0  0  0  0  0  0  0  0  0  0  0
    0.7768    8.4512   23.2741 C   0  0  0  0  0  0  0  0  0  0  0  0
    0.3836    5.1778   25.6906 O   0  0  0  0  0  0  0  0  0  0  0  0
    1.3596    4.1589   25.6267 C   0  0  0  0  0  0  0  0  0  0  0  0
   -0.4791   -1.8293    8.4902 C   0  0  0  0  0  0  0  0  0  0  0  0
    0.0746   -1.6292    7.3814 O   0  0  0  0  0  0  0  0  0  0  0  0
   -1.5429   -1.0332    8.8095 O   0  0  0  0  0  0  0  0  0  0  0  0
   -1.4170    0.2842    9.3164 C   0  0  0  0  0  0  0  0  0  0  0  0
  1  2  1  0
  2  3  2  0
  3  4  1  0
  4  5  1  0
  5  6  2  0
  6  7  1  0
  6  8  1  0
  5  9  1  0
  9 10  2  0
  9 11  1  0
 11 12  1  0
  4 13  1  0
 13 14  2  0
 14 15  1  0
 15 16  2  0
 16 17  1  0
 17 18  2  0
 15 19  1  0
 19 20  1  0
 20 21  2  0
 20 22  1  0
 22 23  1  0
 23 24  1  0
 24 25  1  0
 25 26  1  0
 26 27  1  0
 27 28  1  0
 28 29  1  0
 29 30  1  0
 30 31  1  0
 29 32  1  0
 32 33  2  0
 33 34  1  0
 34 35  2  0
 35 36  1  0
 36 37  2  0
 34 38  1  0
 38 39  1  0
  3 40  1  0
 40 41  2  0
 40 42  1  0
 42 43  1  0
  7  2  1  0
 18 13  1  0
 31 26  1  0
 37 32  1  0
M  END
$$$$
