
     RDKit          3D

 43 46  0  0  0  0  0  0  0  0999 V2000
    2.1939   -5.5470    8.3454 C   0  0  0  0  0  0  0  0  0  0  0  0
    1.2602   -4.7585    9.2292 C   0  0  0  0  0  0  0  0  0  0  0  0
    0.6529   -3.6583    8.8221 C   0  0  0  0  0  0  0  0  0  0  0  0
   -0.2688   -2.8555    9.6529 C   0  0  0  0  0  0  0  0  0  0  0  0
   -0.4739   -3.3850   11.0220 C   0  0  0  0  0  0  0  0  0  0  0  0
    0.1378   -4.4862   11.4207 C   0  0  0  0  0  0  0  0  0  0  0  0
    1.0090   -5.1983   10.5564 N   0  0  0  0  0  0  0  0  0  0  0  0
   -0.1095   -4.9691   12.8163 C   0  0  0  0  0  0  0  0  0  0  0  0
   -1.3749   -2.6655   11.9510 C   0  0  0  0  0  0  0  0  0  0  0  0
   -0.9196   -2.3760   13.0853 O   0  0  0  0  0  0  0  0  0  0  0  0
   -2.6505   -2.2959   11.6740 O   0  0  0  0  0  0  0  0  0  0  0  0
   -3.1363   -0.9902   11.5919 C   0  0  0  0  0  0  0  0  0  0  0  0
    0.1415   -1.4194    9.6896 C   0  0  0  0  0  0  0  0  0  0  0  0
   -0.2034   -0.6097   10.7309 C   0  0  0  0  0  0  0  0  0  0  0  0
    0.1530    0.7467   10.8096 C   0  0  0  0  0  0  0  0  0  0  0  0
    0.8856    1.2819    9.7854 C   0  0  0  0  0  0  0  0  0  0  0  0
    1.2375    0.4483    8.7193 C   0  0  0  0  0  0  0  0  0  0  0  0
    0.8769   -0.8690    8.6686 C   0  0  0  0  0  0  0  0  0  0  0  0
   -0.2614    1.4655   11.9319 N   0  0  0  0  0  0  0  0  0  0  0  0
   -0.3928    0.9515   13.2475 C   0  0  0  0  0  0  0  0  0  0  0  0
   -0.2709   -0.2649   13.4938 O   0  0  0  0  0  0  0  0  0  0  0  0
   -0.6713    1.8051   14.3556 N   0  0  0  0  0  0  0  0  0  0  0  0
    0.1223    2.9500   14.6875 C   0  0  0  0  0  0  0  0  0  0  0  0
   -0.0679    3.3319   16.1324 C   0  0  0  0  0  0  0  0  0  0  0  0
   -0.5400    4.7665   16.2686 C   0  0  0  0  0  0  0  0  0  0  0  0
   -0.1332    5.4483   17.4121 N   0  0  0  0  0  0  0  0  0  0  0  0
    1.1884    5.3964   17.8639 C   0  0  0  0  0  0  0  0  0  0  0  0
    1.5388    6.5663   18.7448 C   0  0  0  0  0  0  0  0  0  0  0  0
    0.8635    7.8342   18.3847 C   0  0  0  0  0  0  0  0  0  0  0  0
   -0.5846    7.6953   18.0256 C   0  0  0  0  0  0  0  0  0  0  0  0
   -1.0468    6.2522   18.1251 C   0  0  0  0  0  0  0  0  0  0  0  0
    0.9311    8.7527   19.5670 C   0  0  0  0  0  0  0  0  0  0  0  0
   -0.1215    9.5604   19.9421 C   0  0  0  0  0  0  0  0  0  0  0  0
    0.0007   10.3831   21.0383 C   0  0  0  0  0  0  0  0  0  0  0  0
    1.1496   10.4420   21.7985 C   0  0  0  0  0  0  0  0  0  0  0  0
    2.1949    9.6449   21.4321 C   0  0  0  0  0  0  0  0  0  0  0  0
    2.0828    8.8086   20.3251 C   0  0  0  0  0  0  0  0  0  0  0  0
   -1.0526   11.1935   21.4164 O   0  0  0  0  0  0  0  0  0  0  0  0
   -0.8746   12.5945   21.4002 C   0  0  0  0  0  0  0  0  0  0  0  0
    0.8874   -3.1713    7.4516 C   0  0  0  0  0  0  0  0  0  0  0  0
    2.0748   -3.0647    7.0583 O   0  0  0  0  0  0  0  0  0  0  0  0
   -0.0962   -2.8241    6.5688 O   0  0  0  0  0  0  0  0  0  0  0  0
   -0.7160   -3.7377    5.6803 C   0  0  0  0  0  0  0  0  0  0  0  0
  1  2  1  0
  2  3  2  0
  3  4  1  0
  4  5  1  0
  5  6  2  0
  6  7  1  0
  6  8  1  0
  5  9  1  0
  9 10  2  0
  9 11  1  0
 11 12  1  0
  4 13  1  0
 13 14  2  0
 14 15  1  0
 15 16  2  0
 16 17  1  0
 17 18  2  0
 15 19  1  0
 19 20  1  0
 20 21  2  0
 20 22  1  0
 22 23  1  0
 23 24  1  0
 24 25  1  0
 25 26  1  0
 26 27  1  0
 27 28  1  0
 28 29  1  0
 29 30  1  0
 30 31  1  0
 29 32  1  0
 32 33  2  0
 33 34  1  0
 34 35  2  0
 35 36  1  0
 36 37  2  0
 34 38  1  0
 38 39  1  0
  3 40  1  0
 40 41  2  0
 40 42  1  0
 42 43  1  0
  7  2  1  0
 18 13  1  0
 31 26  1  0
 37 32  1  0
M  END
$$$$
