
     RDKit          3D

 43 46  0  0  0  0  0  0  0  0999 V2000
    0.9940   -6.5645    8.3189 C   0  0  0  0  0  0  0  0  0  0  0  0
    0.6081   -5.6994    9.4924 C   0  0  0  0  0  0  0  0  0  0  0  0
   -0.1338   -4.6139    9.3641 C   0  0  0  0  0  0  0  0  0  0  0  0
   -0.5356   -3.7383   10.4848 C   0  0  0  0  0  0  0  0  0  0  0  0
   -0.0330   -4.1735   11.8095 C   0  0  0  0  0  0  0  0  0  0  0  0
    0.7086   -5.2606   11.9284 C   0  0  0  0  0  0  0  0  0  0  0  0
    1.0489   -6.0468   10.7974 N   0  0  0  0  0  0  0  0  0  0  0  0
    1.1871   -5.6467   13.2937 C   0  0  0  0  0  0  0  0  0  0  0  0
   -0.3674   -3.3752   13.0108 C   0  0  0  0  0  0  0  0  0  0  0  0
   -0.1263   -2.1432   12.9682 O   0  0  0  0  0  0  0  0  0  0  0  0
   -0.9119   -3.8688   14.1512 O   0  0  0  0  0  0  0  0  0  0  0  0
   -2.2719   -3.9490   14.4535 C   0  0  0  0  0  0  0  0  0  0  0  0
   -0.1774   -2.3126   10.2178 C   0  0  0  0  0  0  0  0  0  0  0  0
   -0.5714   -1.3132   11.0573 C   0  0  0  0  0  0  0  0  0  0  0  0
   -0.2649    0.0416   10.8477 C   0  0  0  0  0  0  0  0  0  0  0  0
    0.4684    0.3737    9.7413 C   0  0  0  0  0  0  0  0  0  0  0  0
    0.8706   -0.6542    8.8827 C   0  0  0  0  0  0  0  0  0  0  0  0
    0.5580   -1.9648    9.1113 C   0  0  0  0  0  0  0  0  0  0  0  0
   -0.7267    0.9669   11.7850 N   0  0  0  0  0  0  0  0  0  0  0  0
   -0.4302    2.3540   11.8008 C   0  0  0  0  0  0  0  0  0  0  0  0
   -0.9271    3.1424   10.9722 O   0  0  0  0  0  0  0  0  0  0  0  0
    0.4536    2.9151   12.7694 N   0  0  0  0  0  0  0  0  0  0  0  0
    0.1081    4.0297   13.5994 C   0  0  0  0  0  0  0  0  0  0  0  0
   -0.2544    3.5706   14.9878 C   0  0  0  0  0  0  0  0  0  0  0  0
    0.2779    4.5214   16.0423 C   0  0  0  0  0  0  0  0  0  0  0  0
   -0.6693    5.1623   16.8359 N   0  0  0  0  0  0  0  0  0  0  0  0
   -0.9231    4.7523   18.1478 C   0  0  0  0  0  0  0  0  0  0  0  0
   -1.5446    5.8435   18.9786 C   0  0  0  0  0  0  0  0  0  0  0  0
   -1.0909    7.2119   18.6396 C   0  0  0  0  0  0  0  0  0  0  0  0
   -0.9767    7.4908   17.1718 C   0  0  0  0  0  0  0  0  0  0  0  0
   -1.3722    6.2813   16.3430 C   0  0  0  0  0  0  0  0  0  0  0  0
   -2.0885    8.1856   19.1898 C   0  0  0  0  0  0  0  0  0  0  0  0
   -2.1661    9.4933   18.7598 C   0  0  0  0  0  0  0  0  0  0  0  0
   -3.1043   10.3405   19.3033 C   0  0  0  0  0  0  0  0  0  0  0  0
   -3.9918    9.9384   20.2791 C   0  0  0  0  0  0  0  0  0  0  0  0
   -3.9197    8.6451   20.7088 C   0  0  0  0  0  0  0  0  0  0  0  0
   -2.9748    7.7790   20.1663 C   0  0  0  0  0  0  0  0  0  0  0  0
   -3.1844   11.6515   18.8742 O   0  0  0  0  0  0  0  0  0  0  0  0
   -2.0885   12.2093   18.1793 C   0  0  0  0  0  0  0  0  0  0  0  0
   -0.6111   -4.2218    8.0266 C   0  0  0  0  0  0  0  0  0  0  0  0
   -1.4913   -3.3297    7.9523 O   0  0  0  0  0  0  0  0  0  0  0  0
   -0.1657   -4.7588    6.8517 O   0  0  0  0  0  0  0  0  0  0  0  0
    0.7929   -4.1361    6.0141 C   0  0  0  0  0  0  0  0  0  0  0  0
  1  2  1  0
  2  3  2  0
  3  4  1  0
  4  5  1  0
  5  6  2  0
  6  7  1  0
  6  8  1  0
  5  9  1  0
  9 10  2  0
  9 11  1  0
 11 12  1  0
  4 13  1  0
 13 14  2  0
 14 15  1  0
 15 16  2  0
 16 17  1  0
 17 18  2  0
 15 19  1  0
 19 20  1  0
 20 21  2  0
 20 22  1  0
 22 23  1  0
 23 24  1  0
 24 25  1  0
 25 26  1  0
 26 27  1  0
 27 28  1  0
 28 29  1  0
 29 30  1  0
 30 31  1  0
 29 32  1  0
 32 33  2  0
 33 34  1  0
 34 35  2  0
 35 36  1  0
 36 37  2  0
 34 38  1  0
 38 39  1  0
  3 40  1  0
 40 41  2  0
 40 42  1  0
 42 43  1  0
  7  2  1  0
 18 13  1  0
 31 26  1  0
 37 32  1  0
M  END
$$$$
