
     RDKit          3D

 43 46  0  0  0  0  0  0  0  0999 V2000
    0.1030   -6.2688    7.7730 C   0  0  0  0  0  0  0  0  0  0  0  0
    0.2777   -5.5053    9.0618 C   0  0  0  0  0  0  0  0  0  0  0  0
   -0.1037   -4.2484    9.2029 C   0  0  0  0  0  0  0  0  0  0  0  0
    0.0476   -3.4630   10.4456 C   0  0  0  0  0  0  0  0  0  0  0  0
    0.6783   -4.2048   11.5631 C   0  0  0  0  0  0  0  0  0  0  0  0
    1.0568   -5.4618   11.4130 C   0  0  0  0  0  0  0  0  0  0  0  0
    0.8738   -6.1436   10.1822 N   0  0  0  0  0  0  0  0  0  0  0  0
    1.6895   -6.1559   12.5791 C   0  0  0  0  0  0  0  0  0  0  0  0
    0.8864   -3.5231   12.8609 C   0  0  0  0  0  0  0  0  0  0  0  0
    0.1110   -2.5764   13.1443 O   0  0  0  0  0  0  0  0  0  0  0  0
    1.8467   -3.8396   13.7654 O   0  0  0  0  0  0  0  0  0  0  0  0
    1.6793   -4.6089   14.9177 C   0  0  0  0  0  0  0  0  0  0  0  0
    0.7562   -2.1724   10.1916 C   0  0  0  0  0  0  0  0  0  0  0  0
    0.4876   -1.0586   10.9306 C   0  0  0  0  0  0  0  0  0  0  0  0
    1.1221    0.1781   10.7277 C   0  0  0  0  0  0  0  0  0  0  0  0
    2.0595    0.2674    9.7350 C   0  0  0  0  0  0  0  0  0  0  0  0
    2.3322   -0.8772    8.9794 C   0  0  0  0  0  0  0  0  0  0  0  0
    1.6992   -2.0684    9.1987 C   0  0  0  0  0  0  0  0  0  0  0  0
    0.7575    1.2413   11.5553 N   0  0  0  0  0  0  0  0  0  0  0  0
   -0.2462    1.2097   12.5571 C   0  0  0  0  0  0  0  0  0  0  0  0
   -1.0762    0.2817   12.6278 O   0  0  0  0  0  0  0  0  0  0  0  0
   -0.3539    2.2419   13.5354 N   0  0  0  0  0  0  0  0  0  0  0  0
   -1.6055    2.7406   14.0206 C   0  0  0  0  0  0  0  0  0  0  0  0
   -1.3907    3.7317   15.1347 C   0  0  0  0  0  0  0  0  0  0  0  0
   -1.2950    5.1491   14.6045 C   0  0  0  0  0  0  0  0  0  0  0  0
   -1.8377    6.1499   15.4054 N   0  0  0  0  0  0  0  0  0  0  0  0
   -1.0849    7.2589   15.8018 C   0  0  0  0  0  0  0  0  0  0  0  0
   -1.9496    8.4316   16.1819 C   0  0  0  0  0  0  0  0  0  0  0  0
   -3.2047    8.5506   15.4050 C   0  0  0  0  0  0  0  0  0  0  0  0
   -3.9229    7.2569   15.1687 C   0  0  0  0  0  0  0  0  0  0  0  0
   -3.1892    6.0889   15.8041 C   0  0  0  0  0  0  0  0  0  0  0  0
   -4.1445    9.4355   16.1664 C   0  0  0  0  0  0  0  0  0  0  0  0
   -3.7894   10.6929   16.6067 C   0  0  0  0  0  0  0  0  0  0  0  0
   -4.6970   11.4591   17.3014 C   0  0  0  0  0  0  0  0  0  0  0  0
   -5.9737   11.0228   17.5862 C   0  0  0  0  0  0  0  0  0  0  0  0
   -6.3310    9.7790   17.1529 C   0  0  0  0  0  0  0  0  0  0  0  0
   -5.4213    8.9950   16.4493 C   0  0  0  0  0  0  0  0  0  0  0  0
   -4.3437   12.7196   17.7438 O   0  0  0  0  0  0  0  0  0  0  0  0
   -3.3584   13.4399   17.0333 C   0  0  0  0  0  0  0  0  0  0  0  0
   -0.7272   -3.5529    8.0637 C   0  0  0  0  0  0  0  0  0  0  0  0
   -1.4725   -2.5724    8.3071 O   0  0  0  0  0  0  0  0  0  0  0  0
   -0.5551   -3.8957    6.7521 O   0  0  0  0  0  0  0  0  0  0  0  0
   -1.5744   -4.4590    5.9446 C   0  0  0  0  0  0  0  0  0  0  0  0
  1  2  1  0
  2  3  2  0
  3  4  1  0
  4  5  1  0
  5  6  2  0
  6  7  1  0
  6  8  1  0
  5  9  1  0
  9 10  2  0
  9 11  1  0
 11 12  1  0
  4 13  1  0
 13 14  2  0
 14 15  1  0
 15 16  2  0
 16 17  1  0
 17 18  2  0
 15 19  1  0
 19 20  1  0
 20 21  2  0
 20 22  1  0
 22 23  1  0
 23 24  1  0
 24 25  1  0
 25 26  1  0
 26 27  1  0
 27 28  1  0
 28 29  1  0
 29 30  1  0
 30 31  1  0
 29 32  1  0
 32 33  2  0
 33 34  1  0
 34 35  2  0
 35 36  1  0
 36 37  2  0
 34 38  1  0
 38 39  1  0
  3 40  1  0
 40 41  2  0
 40 42  1  0
 42 43  1  0
  7  2  1  0
 18 13  1  0
 31 26  1  0
 37 32  1  0
M  END
$$$$
