
     RDKit          3D

 43 46  0  0  0  0  0  0  0  0999 V2000
    7.2258    0.5844    7.4759 C   0  0  0  0  0  0  0  0  0  0  0  0
    6.8127   -0.8414    7.6789 C   0  0  0  0  0  0  0  0  0  0  0  0
    6.0045   -0.8902    8.8474 O   0  0  0  0  0  0  0  0  0  0  0  0
    6.5422   -0.4022   10.0377 C   0  0  0  0  0  0  0  0  0  0  0  0
    6.1131   -0.9512   11.2136 C   0  0  0  0  0  0  0  0  0  0  0  0
    6.6448   -0.4707   12.3970 C   0  0  0  0  0  0  0  0  0  0  0  0
    7.5765    0.5319   12.3508 C   0  0  0  0  0  0  0  0  0  0  0  0
    7.9840    1.0629   11.1314 C   0  0  0  0  0  0  0  0  0  0  0  0
    7.4765    0.6107    9.9344 C   0  0  0  0  0  0  0  0  0  0  0  0
    7.8575    1.1247    8.6526 N   0  0  0  0  0  0  0  0  0  0  0  0
    8.8337    2.1693    8.6238 C   0  0  0  0  0  0  0  0  0  0  0  0
    8.4725    3.5107    8.1175 C   0  0  0  0  0  0  0  0  0  0  0  0
    7.2762    4.1934    8.7041 C   0  0  0  0  0  0  0  0  0  0  0  0
    7.0732    5.4504    7.8980 C   0  0  0  0  0  0  0  0  0  0  0  0
    6.1856    6.2919    8.1686 O   0  0  0  0  0  0  0  0  0  0  0  0
    7.9292    5.6358    6.8234 O   0  0  0  0  0  0  0  0  0  0  0  0
    5.1228   -2.0042   11.3000 N   0  0  0  0  0  0  0  0  0  0  0  0
    4.6473   -2.4282   12.5384 C   0  0  0  0  0  0  0  0  0  0  0  0
    5.5008   -2.5569   13.4797 O   0  0  0  0  0  0  0  0  0  0  0  0
    3.2749   -2.7280   12.8250 C   0  0  0  0  0  0  0  0  0  0  0  0
    2.8224   -3.1696   14.0420 C   0  0  0  0  0  0  0  0  0  0  0  0
    1.4900   -3.4488   14.3010 C   0  0  0  0  0  0  0  0  0  0  0  0
    0.5883   -3.2713   13.2827 C   0  0  0  0  0  0  0  0  0  0  0  0
    0.9969   -2.8269   12.0355 C   0  0  0  0  0  0  0  0  0  0  0  0
    2.3196   -2.5614   11.8164 C   0  0  0  0  0  0  0  0  0  0  0  0
   -0.7344   -3.5441   13.5211 O   0  0  0  0  0  0  0  0  0  0  0  0
   -1.2035   -4.1526   14.7099 C   0  0  0  0  0  0  0  0  0  0  0  0
   -2.7117   -4.4172   14.5972 C   0  0  0  0  0  0  0  0  0  0  0  0
   -3.3456   -3.0743   14.3636 C   0  0  0  0  0  0  0  0  0  0  0  0
   -3.1430   -2.1336   15.5222 C   0  0  0  0  0  0  0  0  0  0  0  0
   -3.6794   -2.6309   16.7149 O   0  0  0  0  0  0  0  0  0  0  0  0
   -4.1156   -1.7662   17.7039 C   0  0  0  0  0  0  0  0  0  0  0  0
   -3.7493   -0.4383   17.6963 C   0  0  0  0  0  0  0  0  0  0  0  0
   -4.1721    0.4556   18.6776 C   0  0  0  0  0  0  0  0  0  0  0  0
   -4.9818   -0.0447   19.6697 C   0  0  0  0  0  0  0  0  0  0  0  0
   -5.3561   -1.3500   19.6977 C   0  0  0  0  0  0  0  0  0  0  0  0
   -4.9290   -2.2380   18.7130 C   0  0  0  0  0  0  0  0  0  0  0  0
   -3.8057    1.7505   18.6570 F   0  0  0  0  0  0  0  0  0  0  0  0
   -2.9485   -0.0137   16.6868 F   0  0  0  0  0  0  0  0  0  0  0  0
    3.6659   -3.3719   15.0742 F   0  0  0  0  0  0  0  0  0  0  0  0
    7.9261   -1.7855    7.6937 C   0  0  0  0  0  0  0  0  0  0  0  0
    7.9929   -2.7759    8.4560 O   0  0  0  0  0  0  0  0  0  0  0  0
    8.9882   -1.6086    6.8278 O   0  0  0  0  0  0  0  0  0  0  0  0
  1  2  1  0
  2  3  1  0
  3  4  1  0
  4  5  2  0
  5  6  1  0
  6  7  2  0
  7  8  1  0
  8  9  2  0
  9 10  1  0
 10 11  1  0
 11 12  1  0
 12 13  1  0
 13 14  1  0
 14 15  2  0
 14 16  1  0
  5 17  1  0
 17 18  1  0
 18 19  2  0
 18 20  1  0
 20 21  2  0
 21 22  1  0
 22 23  2  0
 23 24  1  0
 24 25  2  0
 23 26  1  0
 26 27  1  0
 27 28  1  0
 28 29  1  0
 29 30  1  0
 30 31  1  0
 31 32  1  0
 32 33  2  0
 33 34  1  0
 34 35  2  0
 35 36  1  0
 36 37  2  0
 34 38  1  0
 33 39  1  0
 21 40  1  0
  2 41  1  0
 41 42  2  0
 41 43  1  0
 10  1  1  0
  9  4  1  0
 25 20  1  0
 37 32  1  0
M  END
$$$$
