
     RDKit          3D

 43 46  0  0  0  0  0  0  0  0999 V2000
    0.2717    3.2025   10.1577 C   0  0  0  0  0  0  0  0  0  0  0  0
    0.3701    1.7243    9.9340 C   0  0  0  0  0  0  0  0  0  0  0  0
    1.5951    1.2858   10.5066 O   0  0  0  0  0  0  0  0  0  0  0  0
    2.7752    1.8876   10.0715 C   0  0  0  0  0  0  0  0  0  0  0  0
    3.9251    1.1492   10.0978 C   0  0  0  0  0  0  0  0  0  0  0  0
    5.0981    1.7422    9.6658 C   0  0  0  0  0  0  0  0  0  0  0  0
    5.0679    3.0400    9.2297 C   0  0  0  0  0  0  0  0  0  0  0  0
    3.8749    3.7554    9.2209 C   0  0  0  0  0  0  0  0  0  0  0  0
    2.6892    3.1989    9.6439 C   0  0  0  0  0  0  0  0  0  0  0  0
    1.4350    3.8913    9.6599 N   0  0  0  0  0  0  0  0  0  0  0  0
    1.4223    5.2448    9.1981 C   0  0  0  0  0  0  0  0  0  0  0  0
    1.9814    6.3231   10.0411 C   0  0  0  0  0  0  0  0  0  0  0  0
    1.8641    7.7356    9.5588 C   0  0  0  0  0  0  0  0  0  0  0  0
    2.2506    8.6101   10.7236 C   0  0  0  0  0  0  0  0  0  0  0  0
    3.2452    9.3712   10.6975 O   0  0  0  0  0  0  0  0  0  0  0  0
    1.4404    8.5319   11.8458 O   0  0  0  0  0  0  0  0  0  0  0  0
    3.9954   -0.2206   10.5620 N   0  0  0  0  0  0  0  0  0  0  0  0
    5.0713   -0.6515   11.3343 C   0  0  0  0  0  0  0  0  0  0  0  0
    6.1522    0.0249   11.2605 O   0  0  0  0  0  0  0  0  0  0  0  0
    5.0472   -1.7945   12.1994 C   0  0  0  0  0  0  0  0  0  0  0  0
    4.5853   -3.0310   11.8270 C   0  0  0  0  0  0  0  0  0  0  0  0
    4.5756   -4.1256   12.6768 C   0  0  0  0  0  0  0  0  0  0  0  0
    5.0537   -3.9521   13.9507 C   0  0  0  0  0  0  0  0  0  0  0  0
    5.5312   -2.7220   14.3737 C   0  0  0  0  0  0  0  0  0  0  0  0
    5.5254   -1.6646   13.5079 C   0  0  0  0  0  0  0  0  0  0  0  0
    5.0503   -5.0244   14.8056 O   0  0  0  0  0  0  0  0  0  0  0  0
    5.6362   -4.9969   16.0939 C   0  0  0  0  0  0  0  0  0  0  0  0
    5.4338   -6.3528   16.7851 C   0  0  0  0  0  0  0  0  0  0  0  0
    3.9573   -6.4625   17.0449 C   0  0  0  0  0  0  0  0  0  0  0  0
    3.6425   -7.3866   18.1917 C   0  0  0  0  0  0  0  0  0  0  0  0
    4.7730   -7.6944   18.9564 O   0  0  0  0  0  0  0  0  0  0  0  0
    4.6665   -8.5038   20.0743 C   0  0  0  0  0  0  0  0  0  0  0  0
    5.7068   -8.6146   20.9706 C   0  0  0  0  0  0  0  0  0  0  0  0
    5.6295   -9.4209   22.1040 C   0  0  0  0  0  0  0  0  0  0  0  0
    4.4575  -10.1129   22.2980 C   0  0  0  0  0  0  0  0  0  0  0  0
    3.4186  -10.0192   21.4282 C   0  0  0  0  0  0  0  0  0  0  0  0
    3.5035   -9.2110   20.2968 C   0  0  0  0  0  0  0  0  0  0  0  0
    6.6543   -9.5191   22.9707 F   0  0  0  0  0  0  0  0  0  0  0  0
    6.8334   -7.9029   20.7158 F   0  0  0  0  0  0  0  0  0  0  0  0
    4.0943   -3.2549   10.5914 F   0  0  0  0  0  0  0  0  0  0  0  0
    0.1938    1.3217    8.5419 C   0  0  0  0  0  0  0  0  0  0  0  0
    0.7280    0.3104    8.0335 O   0  0  0  0  0  0  0  0  0  0  0  0
   -0.6041    2.0771    7.7041 O   0  0  0  0  0  0  0  0  0  0  0  0
  1  2  1  0
  2  3  1  0
  3  4  1  0
  4  5  2  0
  5  6  1  0
  6  7  2  0
  7  8  1  0
  8  9  2  0
  9 10  1  0
 10 11  1  0
 11 12  1  0
 12 13  1  0
 13 14  1  0
 14 15  2  0
 14 16  1  0
  5 17  1  0
 17 18  1  0
 18 19  2  0
 18 20  1  0
 20 21  2  0
 21 22  1  0
 22 23  2  0
 23 24  1  0
 24 25  2  0
 23 26  1  0
 26 27  1  0
 27 28  1  0
 28 29  1  0
 29 30  1  0
 30 31  1  0
 31 32  1  0
 32 33  2  0
 33 34  1  0
 34 35  2  0
 35 36  1  0
 36 37  2  0
 34 38  1  0
 33 39  1  0
 21 40  1  0
  2 41  1  0
 41 42  2  0
 41 43  1  0
 10  1  1  0
  9  4  1  0
 25 20  1  0
 37 32  1  0
M  END
$$$$
