
     RDKit          3D

 43 46  0  0  0  0  0  0  0  0999 V2000
    7.4220   -2.0359   11.0812 C   0  0  0  0  0  0  0  0  0  0  0  0
    6.2445   -2.5983   11.8174 C   0  0  0  0  0  0  0  0  0  0  0  0
    5.1216   -1.7799   11.5167 O   0  0  0  0  0  0  0  0  0  0  0  0
    5.2133   -0.4152   11.7874 C   0  0  0  0  0  0  0  0  0  0  0  0
    4.0665    0.2606   12.0976 C   0  0  0  0  0  0  0  0  0  0  0  0
    4.1532    1.6147   12.3679 C   0  0  0  0  0  0  0  0  0  0  0  0
    5.3765    2.2281   12.3158 C   0  0  0  0  0  0  0  0  0  0  0  0
    6.5185    1.5019   11.9946 C   0  0  0  0  0  0  0  0  0  0  0  0
    6.4706    0.1541   11.7188 C   0  0  0  0  0  0  0  0  0  0  0  0
    7.6139   -0.6394   11.3786 N   0  0  0  0  0  0  0  0  0  0  0  0
    8.8833    0.0177   11.3320 C   0  0  0  0  0  0  0  0  0  0  0  0
    9.3369    0.6707   10.0855 C   0  0  0  0  0  0  0  0  0  0  0  0
    8.3424    0.8685    8.9840 C   0  0  0  0  0  0  0  0  0  0  0  0
    9.0164    1.7489    7.9634 C   0  0  0  0  0  0  0  0  0  0  0  0
    9.9770    1.3577    7.2611 O   0  0  0  0  0  0  0  0  0  0  0  0
    8.5155    3.0353    7.8355 O   0  0  0  0  0  0  0  0  0  0  0  0
    2.7562   -0.3533   12.1514 N   0  0  0  0  0  0  0  0  0  0  0  0
    1.8636   -0.0275   13.1697 C   0  0  0  0  0  0  0  0  0  0  0  0
    2.1144    1.0214   13.8539 O   0  0  0  0  0  0  0  0  0  0  0  0
    0.6916   -0.7848   13.4990 C   0  0  0  0  0  0  0  0  0  0  0  0
   -0.5760   -0.2625   13.5358 C   0  0  0  0  0  0  0  0  0  0  0  0
   -1.6976   -1.0128   13.8511 C   0  0  0  0  0  0  0  0  0  0  0  0
   -1.5193   -2.3420   14.1390 C   0  0  0  0  0  0  0  0  0  0  0  0
   -0.2582   -2.9157   14.1148 C   0  0  0  0  0  0  0  0  0  0  0  0
    0.8254   -2.1448   13.7994 C   0  0  0  0  0  0  0  0  0  0  0  0
   -2.6182   -3.0994   14.4546 O   0  0  0  0  0  0  0  0  0  0  0  0
   -2.5629   -4.4940   14.6905 C   0  0  0  0  0  0  0  0  0  0  0  0
   -3.9707   -5.0248   14.9961 C   0  0  0  0  0  0  0  0  0  0  0  0
   -4.5678   -5.3887   13.6654 C   0  0  0  0  0  0  0  0  0  0  0  0
   -4.7863   -6.8716   13.5195 C   0  0  0  0  0  0  0  0  0  0  0  0
   -4.8920   -7.2675   12.1817 O   0  0  0  0  0  0  0  0  0  0  0  0
   -4.9685   -8.6092   11.8496 C   0  0  0  0  0  0  0  0  0  0  0  0
   -4.9856   -9.5810   12.8258 C   0  0  0  0  0  0  0  0  0  0  0  0
   -5.0618  -10.9386   12.5227 C   0  0  0  0  0  0  0  0  0  0  0  0
   -5.1205  -11.2779   11.1917 C   0  0  0  0  0  0  0  0  0  0  0  0
   -5.1052  -10.3374   10.2120 C   0  0  0  0  0  0  0  0  0  0  0  0
   -5.0286   -8.9816   10.5230 C   0  0  0  0  0  0  0  0  0  0  0  0
   -5.0774  -11.8767   13.4876 F   0  0  0  0  0  0  0  0  0  0  0  0
   -4.9249   -9.1735   14.1184 F   0  0  0  0  0  0  0  0  0  0  0  0
   -0.8075    1.0394   13.2726 F   0  0  0  0  0  0  0  0  0  0  0  0
    6.4717   -2.7833   13.2475 C   0  0  0  0  0  0  0  0  0  0  0  0
    5.5556   -2.8605   14.0968 O   0  0  0  0  0  0  0  0  0  0  0  0
    7.7624   -2.8842   13.7305 O   0  0  0  0  0  0  0  0  0  0  0  0
  1  2  1  0
  2  3  1  0
  3  4  1  0
  4  5  2  0
  5  6  1  0
  6  7  2  0
  7  8  1  0
  8  9  2  0
  9 10  1  0
 10 11  1  0
 11 12  1  0
 12 13  1  0
 13 14  1  0
 14 15  2  0
 14 16  1  0
  5 17  1  0
 17 18  1  0
 18 19  2  0
 18 20  1  0
 20 21  2  0
 21 22  1  0
 22 23  2  0
 23 24  1  0
 24 25  2  0
 23 26  1  0
 26 27  1  0
 27 28  1  0
 28 29  1  0
 29 30  1  0
 30 31  1  0
 31 32  1  0
 32 33  2  0
 33 34  1  0
 34 35  2  0
 35 36  1  0
 36 37  2  0
 34 38  1  0
 33 39  1  0
 21 40  1  0
  2 41  1  0
 41 42  2  0
 41 43  1  0
 10  1  1  0
  9  4  1  0
 25 20  1  0
 37 32  1  0
M  END
$$$$
