
     RDKit          3D

 43 46  0  0  0  0  0  0  0  0999 V2000
   -0.4472    2.8152  -21.0453 C   0  0  0  0  0  0  0  0  0  0  0  0
    0.5482    2.4283  -19.9945 C   0  0  0  0  0  0  0  0  0  0  0  0
    0.4221    3.3552  -18.9241 O   0  0  0  0  0  0  0  0  0  0  0  0
    0.5718    4.7117  -19.2099 C   0  0  0  0  0  0  0  0  0  0  0  0
    1.0575    5.5292  -18.2281 C   0  0  0  0  0  0  0  0  0  0  0  0
    1.2086    6.8757  -18.5079 C   0  0  0  0  0  0  0  0  0  0  0  0
    0.8687    7.3409  -19.7502 C   0  0  0  0  0  0  0  0  0  0  0  0
    0.3768    6.4733  -20.7199 C   0  0  0  0  0  0  0  0  0  0  0  0
    0.2122    5.1284  -20.4774 C   0  0  0  0  0  0  0  0  0  0  0  0
   -0.2938    4.1930  -21.4374 N   0  0  0  0  0  0  0  0  0  0  0  0
   -0.6407    4.6964  -22.7303 C   0  0  0  0  0  0  0  0  0  0  0  0
   -2.0350    5.0898  -23.0252 C   0  0  0  0  0  0  0  0  0  0  0  0
   -3.0260    4.0126  -23.3400 C   0  0  0  0  0  0  0  0  0  0  0  0
   -4.3468    4.7066  -23.5522 C   0  0  0  0  0  0  0  0  0  0  0  0
   -4.5206    5.9217  -23.3019 O   0  0  0  0  0  0  0  0  0  0  0  0
   -5.3794    3.9243  -24.0457 O   0  0  0  0  0  0  0  0  0  0  0  0
    1.4166    5.0737  -16.9013 N   0  0  0  0  0  0  0  0  0  0  0  0
    0.8313    5.6456  -15.7744 C   0  0  0  0  0  0  0  0  0  0  0  0
    0.4039    6.8443  -15.8820 O   0  0  0  0  0  0  0  0  0  0  0  0
    0.6780    4.9844  -14.5116 C   0  0  0  0  0  0  0  0  0  0  0  0
    0.9111    5.5802  -13.2985 C   0  0  0  0  0  0  0  0  0  0  0  0
    0.7517    4.9253  -12.0877 C   0  0  0  0  0  0  0  0  0  0  0  0
    0.3403    3.6171  -12.1160 C   0  0  0  0  0  0  0  0  0  0  0  0
    0.0920    2.9716  -13.3167 C   0  0  0  0  0  0  0  0  0  0  0  0
    0.2599    3.6493  -14.4917 C   0  0  0  0  0  0  0  0  0  0  0  0
    0.1787    2.9531  -10.9270 O   0  0  0  0  0  0  0  0  0  0  0  0
    0.6351    3.4552   -9.6847 C   0  0  0  0  0  0  0  0  0  0  0  0
    0.1877    2.5211   -8.5514 C   0  0  0  0  0  0  0  0  0  0  0  0
    1.3377    2.4721   -7.5845 C   0  0  0  0  0  0  0  0  0  0  0  0
    1.8398    3.8439   -7.2184 C   0  0  0  0  0  0  0  0  0  0  0  0
    1.3363    4.2878   -5.9909 O   0  0  0  0  0  0  0  0  0  0  0  0
    1.9666    5.3084   -5.3001 C   0  0  0  0  0  0  0  0  0  0  0  0
    1.4893    5.7397   -4.0819 C   0  0  0  0  0  0  0  0  0  0  0  0
    2.1016    6.7642   -3.3635 C   0  0  0  0  0  0  0  0  0  0  0  0
    3.2181    7.3379   -3.9243 C   0  0  0  0  0  0  0  0  0  0  0  0
    3.7070    6.9292   -5.1237 C   0  0  0  0  0  0  0  0  0  0  0  0
    3.0890    5.9041   -5.8364 C   0  0  0  0  0  0  0  0  0  0  0  0
    1.6235    7.1750   -2.1744 F   0  0  0  0  0  0  0  0  0  0  0  0
    0.3832    5.1281   -3.5888 F   0  0  0  0  0  0  0  0  0  0  0  0
    1.3274    6.8597  -13.2124 F   0  0  0  0  0  0  0  0  0  0  0  0
    1.9130    2.2872  -20.4931 C   0  0  0  0  0  0  0  0  0  0  0  0
    2.9025    2.8714  -19.9969 O   0  0  0  0  0  0  0  0  0  0  0  0
    2.1674    1.4677  -21.5761 O   0  0  0  0  0  0  0  0  0  0  0  0
  1  2  1  0
  2  3  1  0
  3  4  1  0
  4  5  2  0
  5  6  1  0
  6  7  2  0
  7  8  1  0
  8  9  2  0
  9 10  1  0
 10 11  1  0
 11 12  1  0
 12 13  1  0
 13 14  1  0
 14 15  2  0
 14 16  1  0
  5 17  1  0
 17 18  1  0
 18 19  2  0
 18 20  1  0
 20 21  2  0
 21 22  1  0
 22 23  2  0
 23 24  1  0
 24 25  2  0
 23 26  1  0
 26 27  1  0
 27 28  1  0
 28 29  1  0
 29 30  1  0
 30 31  1  0
 31 32  1  0
 32 33  2  0
 33 34  1  0
 34 35  2  0
 35 36  1  0
 36 37  2  0
 34 38  1  0
 33 39  1  0
 21 40  1  0
  2 41  1  0
 41 42  2  0
 41 43  1  0
 10  1  1  0
  9  4  1  0
 25 20  1  0
 37 32  1  0
M  END
$$$$
