
     RDKit          3D

 43 46  0  0  0  0  0  0  0  0999 V2000
    3.0157    5.2755  -20.8881 C   0  0  0  0  0  0  0  0  0  0  0  0
    2.5242    6.3025  -19.9142 C   0  0  0  0  0  0  0  0  0  0  0  0
    2.0783    5.6126  -18.7540 O   0  0  0  0  0  0  0  0  0  0  0  0
    1.0985    4.6327  -18.9095 C   0  0  0  0  0  0  0  0  0  0  0  0
    0.2430    4.4034  -17.8685 C   0  0  0  0  0  0  0  0  0  0  0  0
   -0.7313    3.4327  -18.0190 C   0  0  0  0  0  0  0  0  0  0  0  0
   -0.8051    2.7391  -19.1974 C   0  0  0  0  0  0  0  0  0  0  0  0
    0.0872    3.0043  -20.2311 C   0  0  0  0  0  0  0  0  0  0  0  0
    1.0696    3.9616  -20.1171 C   0  0  0  0  0  0  0  0  0  0  0  0
    2.0158    4.2712  -21.1473 N   0  0  0  0  0  0  0  0  0  0  0  0
    1.9215    3.5388  -22.3720 C   0  0  0  0  0  0  0  0  0  0  0  0
    2.9183    2.4948  -22.6925 C   0  0  0  0  0  0  0  0  0  0  0  0
    2.5552    1.0643  -22.4413 C   0  0  0  0  0  0  0  0  0  0  0  0
    3.7701    0.2522  -22.8093 C   0  0  0  0  0  0  0  0  0  0  0  0
    4.8763    0.7741  -23.0799 O   0  0  0  0  0  0  0  0  0  0  0  0
    3.6042   -1.1239  -22.8354 O   0  0  0  0  0  0  0  0  0  0  0  0
    0.2989    5.1099  -16.6058 N   0  0  0  0  0  0  0  0  0  0  0  0
   -0.0901    4.4813  -15.4255 C   0  0  0  0  0  0  0  0  0  0  0  0
   -1.0932    3.6930  -15.4860 O   0  0  0  0  0  0  0  0  0  0  0  0
    0.5545    4.6585  -14.1572 C   0  0  0  0  0  0  0  0  0  0  0  0
    0.2184    3.9681  -13.0209 C   0  0  0  0  0  0  0  0  0  0  0  0
    0.8577    4.1498  -11.8049 C   0  0  0  0  0  0  0  0  0  0  0  0
    1.8751    5.0680  -11.7467 C   0  0  0  0  0  0  0  0  0  0  0  0
    2.2513    5.7901  -12.8679 C   0  0  0  0  0  0  0  0  0  0  0  0
    1.5981    5.5844  -14.0506 C   0  0  0  0  0  0  0  0  0  0  0  0
    2.5180    5.2617  -10.5509 O   0  0  0  0  0  0  0  0  0  0  0  0
    2.7303    6.5382   -9.9771 C   0  0  0  0  0  0  0  0  0  0  0  0
    3.5340    6.3955   -8.6768 C   0  0  0  0  0  0  0  0  0  0  0  0
    3.5791    7.7708   -8.0715 C   0  0  0  0  0  0  0  0  0  0  0  0
    3.1876    7.7720   -6.6173 C   0  0  0  0  0  0  0  0  0  0  0  0
    3.1464    9.0614   -6.0756 O   0  0  0  0  0  0  0  0  0  0  0  0
    2.9294    9.2484   -4.7213 C   0  0  0  0  0  0  0  0  0  0  0  0
    2.1888   10.3159   -4.2632 C   0  0  0  0  0  0  0  0  0  0  0  0
    1.9536   10.5305   -2.9070 C   0  0  0  0  0  0  0  0  0  0  0  0
    2.4964    9.6227   -2.0287 C   0  0  0  0  0  0  0  0  0  0  0  0
    3.2296    8.5627   -2.4571 C   0  0  0  0  0  0  0  0  0  0  0  0
    3.4608    8.3549   -3.8150 C   0  0  0  0  0  0  0  0  0  0  0  0
    1.2281   11.5783   -2.4743 F   0  0  0  0  0  0  0  0  0  0  0  0
    1.6835   11.1718   -5.1865 F   0  0  0  0  0  0  0  0  0  0  0  0
   -0.7804    3.0624  -13.0184 F   0  0  0  0  0  0  0  0  0  0  0  0
    1.5347    7.2212  -20.4693 C   0  0  0  0  0  0  0  0  0  0  0  0
    0.3457    7.2845  -20.0838 O   0  0  0  0  0  0  0  0  0  0  0  0
    1.8953    8.0890  -21.4822 O   0  0  0  0  0  0  0  0  0  0  0  0
  1  2  1  0
  2  3  1  0
  3  4  1  0
  4  5  2  0
  5  6  1  0
  6  7  2  0
  7  8  1  0
  8  9  2  0
  9 10  1  0
 10 11  1  0
 11 12  1  0
 12 13  1  0
 13 14  1  0
 14 15  2  0
 14 16  1  0
  5 17  1  0
 17 18  1  0
 18 19  2  0
 18 20  1  0
 20 21  2  0
 21 22  1  0
 22 23  2  0
 23 24  1  0
 24 25  2  0
 23 26  1  0
 26 27  1  0
 27 28  1  0
 28 29  1  0
 29 30  1  0
 30 31  1  0
 31 32  1  0
 32 33  2  0
 33 34  1  0
 34 35  2  0
 35 36  1  0
 36 37  2  0
 34 38  1  0
 33 39  1  0
 21 40  1  0
  2 41  1  0
 41 42  2  0
 41 43  1  0
 10  1  1  0
  9  4  1  0
 25 20  1  0
 37 32  1  0
M  END
$$$$
