
     RDKit          3D

 43 46  0  0  0  0  0  0  0  0999 V2000
    5.4704    0.8910    9.4285 C   0  0  0  0  0  0  0  0  0  0  0  0
    4.9826   -0.5225    9.3351 C   0  0  0  0  0  0  0  0  0  0  0  0
    4.3263   -0.8301   10.5580 O   0  0  0  0  0  0  0  0  0  0  0  0
    5.0438   -0.6777   11.7438 C   0  0  0  0  0  0  0  0  0  0  0  0
    4.7268   -1.4862   12.7994 C   0  0  0  0  0  0  0  0  0  0  0  0
    5.4370   -1.3390   13.9776 C   0  0  0  0  0  0  0  0  0  0  0  0
    6.4265   -0.3948   14.0462 C   0  0  0  0  0  0  0  0  0  0  0  0
    6.7153    0.4079   12.9475 C   0  0  0  0  0  0  0  0  0  0  0  0
    6.0295    0.2906   11.7598 C   0  0  0  0  0  0  0  0  0  0  0  0
    6.2830    1.0937   10.6007 N   0  0  0  0  0  0  0  0  0  0  0  0
    7.3219    2.0724   10.6901 C   0  0  0  0  0  0  0  0  0  0  0  0
    8.7002    1.7334   10.2762 C   0  0  0  0  0  0  0  0  0  0  0  0
    8.9652    1.4836    8.8240 C   0  0  0  0  0  0  0  0  0  0  0  0
   10.1787    0.5920    8.7663 C   0  0  0  0  0  0  0  0  0  0  0  0
   11.3241    1.0244    8.5009 O   0  0  0  0  0  0  0  0  0  0  0  0
    9.9654   -0.7532    9.0247 O   0  0  0  0  0  0  0  0  0  0  0  0
    3.6807   -2.4868   12.7653 N   0  0  0  0  0  0  0  0  0  0  0  0
    2.9812   -2.8187   13.9230 C   0  0  0  0  0  0  0  0  0  0  0  0
    3.5651   -2.6092   15.0394 O   0  0  0  0  0  0  0  0  0  0  0  0
    1.6604   -3.3757   13.9454 C   0  0  0  0  0  0  0  0  0  0  0  0
    1.3259   -4.5837   13.3890 C   0  0  0  0  0  0  0  0  0  0  0  0
    0.0436   -5.1079   13.4261 C   0  0  0  0  0  0  0  0  0  0  0  0
   -0.9310   -4.3736   14.0526 C   0  0  0  0  0  0  0  0  0  0  0  0
   -0.6422   -3.1475   14.6299 C   0  0  0  0  0  0  0  0  0  0  0  0
    0.6341   -2.6619   14.5740 C   0  0  0  0  0  0  0  0  0  0  0  0
   -2.2061   -4.8765   14.0976 O   0  0  0  0  0  0  0  0  0  0  0  0
   -3.3581   -4.1097   13.8000 C   0  0  0  0  0  0  0  0  0  0  0  0
   -4.5299   -5.0429   13.4634 C   0  0  0  0  0  0  0  0  0  0  0  0
   -5.7754   -4.2312   13.6865 C   0  0  0  0  0  0  0  0  0  0  0  0
   -5.5684   -2.7685   13.3943 C   0  0  0  0  0  0  0  0  0  0  0  0
   -6.7682   -2.1024   13.1217 O   0  0  0  0  0  0  0  0  0  0  0  0
   -6.8092   -0.7197   13.0718 C   0  0  0  0  0  0  0  0  0  0  0  0
   -7.8336   -0.0640   12.4250 C   0  0  0  0  0  0  0  0  0  0  0  0
   -7.9020    1.3258   12.3578 C   0  0  0  0  0  0  0  0  0  0  0  0
   -6.8930    2.0300   12.9711 C   0  0  0  0  0  0  0  0  0  0  0  0
   -5.8731    1.4054   13.6148 C   0  0  0  0  0  0  0  0  0  0  0  0
   -5.8115    0.0151   13.6776 C   0  0  0  0  0  0  0  0  0  0  0  0
   -8.9091    1.9523   11.7219 F   0  0  0  0  0  0  0  0  0  0  0  0
   -8.7954   -0.8228   11.8420 F   0  0  0  0  0  0  0  0  0  0  0  0
    2.2411   -5.3414   12.7517 F   0  0  0  0  0  0  0  0  0  0  0  0
    6.0166   -1.4839    8.9641 C   0  0  0  0  0  0  0  0  0  0  0  0
    7.1780   -1.4765    9.4306 O   0  0  0  0  0  0  0  0  0  0  0  0
    5.7336   -2.4771    8.0461 O   0  0  0  0  0  0  0  0  0  0  0  0
  1  2  1  0
  2  3  1  0
  3  4  1  0
  4  5  2  0
  5  6  1  0
  6  7  2  0
  7  8  1  0
  8  9  2  0
  9 10  1  0
 10 11  1  0
 11 12  1  0
 12 13  1  0
 13 14  1  0
 14 15  2  0
 14 16  1  0
  5 17  1  0
 17 18  1  0
 18 19  2  0
 18 20  1  0
 20 21  2  0
 21 22  1  0
 22 23  2  0
 23 24  1  0
 24 25  2  0
 23 26  1  0
 26 27  1  0
 27 28  1  0
 28 29  1  0
 29 30  1  0
 30 31  1  0
 31 32  1  0
 32 33  2  0
 33 34  1  0
 34 35  2  0
 35 36  1  0
 36 37  2  0
 34 38  1  0
 33 39  1  0
 21 40  1  0
  2 41  1  0
 41 42  2  0
 41 43  1  0
 10  1  1  0
  9  4  1  0
 25 20  1  0
 37 32  1  0
M  END
$$$$
