
     RDKit          3D

 43 46  0  0  0  0  0  0  0  0999 V2000
    2.7226   -3.7555   16.7172 C   0  0  0  0  0  0  0  0  0  0  0  0
    3.9655   -3.7074   15.8819 C   0  0  0  0  0  0  0  0  0  0  0  0
    3.7783   -2.7021   14.8944 O   0  0  0  0  0  0  0  0  0  0  0  0
    2.6722   -2.8079   14.0520 C   0  0  0  0  0  0  0  0  0  0  0  0
    2.7689   -2.2909   12.7905 C   0  0  0  0  0  0  0  0  0  0  0  0
    1.6741   -2.3947   11.9510 C   0  0  0  0  0  0  0  0  0  0  0  0
    0.5383   -3.0076   12.4091 C   0  0  0  0  0  0  0  0  0  0  0  0
    0.4830   -3.5191   13.7015 C   0  0  0  0  0  0  0  0  0  0  0  0
    1.5517   -3.4332   14.5647 C   0  0  0  0  0  0  0  0  0  0  0  0
    1.5466   -3.9384   15.9054 N   0  0  0  0  0  0  0  0  0  0  0  0
    0.3529   -4.5778   16.3653 C   0  0  0  0  0  0  0  0  0  0  0  0
   -0.8705   -3.7833   16.6059 C   0  0  0  0  0  0  0  0  0  0  0  0
   -0.9301   -2.9228   17.8295 C   0  0  0  0  0  0  0  0  0  0  0  0
   -2.3416   -2.4003   17.9066 C   0  0  0  0  0  0  0  0  0  0  0  0
   -2.6806   -1.2938   17.4273 O   0  0  0  0  0  0  0  0  0  0  0  0
   -3.2642   -3.2152   18.5444 O   0  0  0  0  0  0  0  0  0  0  0  0
    3.9493   -1.6277   12.2771 N   0  0  0  0  0  0  0  0  0  0  0  0
    3.9113   -0.2773   11.9385 C   0  0  0  0  0  0  0  0  0  0  0  0
    3.1785    0.4848   12.6550 O   0  0  0  0  0  0  0  0  0  0  0  0
    4.6335    0.3099   10.8481 C   0  0  0  0  0  0  0  0  0  0  0  0
    4.2014    1.4013   10.1388 C   0  0  0  0  0  0  0  0  0  0  0  0
    4.9172    1.9579    9.0909 C   0  0  0  0  0  0  0  0  0  0  0  0
    6.1153    1.3806    8.7552 C   0  0  0  0  0  0  0  0  0  0  0  0
    6.5942    0.2766    9.4422 C   0  0  0  0  0  0  0  0  0  0  0  0
    5.8610   -0.2455   10.4706 C   0  0  0  0  0  0  0  0  0  0  0  0
    6.8364    1.9177    7.7196 O   0  0  0  0  0  0  0  0  0  0  0  0
    6.3947    3.0215    6.9514 C   0  0  0  0  0  0  0  0  0  0  0  0
    5.9681    2.5449    5.5557 C   0  0  0  0  0  0  0  0  0  0  0  0
    5.7251    3.7934    4.7544 C   0  0  0  0  0  0  0  0  0  0  0  0
    6.6457    3.9030    3.5676 C   0  0  0  0  0  0  0  0  0  0  0  0
    6.5277    5.1328    2.9109 O   0  0  0  0  0  0  0  0  0  0  0  0
    7.2772    5.3998    1.7782 C   0  0  0  0  0  0  0  0  0  0  0  0
    7.0159    6.5062    1.0001 C   0  0  0  0  0  0  0  0  0  0  0  0
    7.7523    6.8009   -0.1451 C   0  0  0  0  0  0  0  0  0  0  0  0
    8.7661    5.9329   -0.4750 C   0  0  0  0  0  0  0  0  0  0  0  0
    9.0423    4.8361    0.2770 C   0  0  0  0  0  0  0  0  0  0  0  0
    8.3011    4.5478    1.4207 C   0  0  0  0  0  0  0  0  0  0  0  0
    7.4851    7.8857   -0.8955 F   0  0  0  0  0  0  0  0  0  0  0  0
    6.0005    7.3192    1.3857 F   0  0  0  0  0  0  0  0  0  0  0  0
    3.0268    2.0011   10.4186 F   0  0  0  0  0  0  0  0  0  0  0  0
    4.3644   -5.0013   15.3362 C   0  0  0  0  0  0  0  0  0  0  0  0
    5.1744   -5.1424   14.3926 O   0  0  0  0  0  0  0  0  0  0  0  0
    3.8378   -6.1629   15.8679 O   0  0  0  0  0  0  0  0  0  0  0  0
  1  2  1  0
  2  3  1  0
  3  4  1  0
  4  5  2  0
  5  6  1  0
  6  7  2  0
  7  8  1  0
  8  9  2  0
  9 10  1  0
 10 11  1  0
 11 12  1  0
 12 13  1  0
 13 14  1  0
 14 15  2  0
 14 16  1  0
  5 17  1  0
 17 18  1  0
 18 19  2  0
 18 20  1  0
 20 21  2  0
 21 22  1  0
 22 23  2  0
 23 24  1  0
 24 25  2  0
 23 26  1  0
 26 27  1  0
 27 28  1  0
 28 29  1  0
 29 30  1  0
 30 31  1  0
 31 32  1  0
 32 33  2  0
 33 34  1  0
 34 35  2  0
 35 36  1  0
 36 37  2  0
 34 38  1  0
 33 39  1  0
 21 40  1  0
  2 41  1  0
 41 42  2  0
 41 43  1  0
 10  1  1  0
  9  4  1  0
 25 20  1  0
 37 32  1  0
M  END
$$$$
