
     RDKit          3D

 43 46  0  0  0  0  0  0  0  0999 V2000
    7.7803   -0.0248    9.1294 C   0  0  0  0  0  0  0  0  0  0  0  0
    8.0064   -1.4720    9.4442 C   0  0  0  0  0  0  0  0  0  0  0  0
    6.9160   -1.9112   10.2436 O   0  0  0  0  0  0  0  0  0  0  0  0
    6.6550   -1.2267   11.4300 C   0  0  0  0  0  0  0  0  0  0  0  0
    6.0891   -1.9185   12.4641 C   0  0  0  0  0  0  0  0  0  0  0  0
    5.8295   -1.2433   13.6435 C   0  0  0  0  0  0  0  0  0  0  0  0
    6.1457    0.0860   13.7344 C   0  0  0  0  0  0  0  0  0  0  0  0
    6.7197    0.7516   12.6562 C   0  0  0  0  0  0  0  0  0  0  0  0
    6.9915    0.1131   11.4675 C   0  0  0  0  0  0  0  0  0  0  0  0
    7.5767    0.7512   10.3260 N   0  0  0  0  0  0  0  0  0  0  0  0
    7.9029    2.1389   10.4405 C   0  0  0  0  0  0  0  0  0  0  0  0
    7.0204    3.1619    9.8400 C   0  0  0  0  0  0  0  0  0  0  0  0
    5.5519    2.8797    9.7672 C   0  0  0  0  0  0  0  0  0  0  0  0
    4.8744    4.2178    9.6203 C   0  0  0  0  0  0  0  0  0  0  0  0
    4.8815    4.8658    8.5483 O   0  0  0  0  0  0  0  0  0  0  0  0
    4.2315    4.7077   10.7467 O   0  0  0  0  0  0  0  0  0  0  0  0
    5.7325   -3.3204   12.3993 N   0  0  0  0  0  0  0  0  0  0  0  0
    4.7580   -3.8423   13.2463 C   0  0  0  0  0  0  0  0  0  0  0  0
    5.1125   -4.7795   14.0383 O   0  0  0  0  0  0  0  0  0  0  0  0
    3.3942   -3.4021   13.2882 C   0  0  0  0  0  0  0  0  0  0  0  0
    2.6731   -3.0270   12.1836 C   0  0  0  0  0  0  0  0  0  0  0  0
    1.3531   -2.6094   12.2443 C   0  0  0  0  0  0  0  0  0  0  0  0
    0.7483   -2.5732   13.4750 C   0  0  0  0  0  0  0  0  0  0  0  0
    1.4353   -2.9427   14.6202 C   0  0  0  0  0  0  0  0  0  0  0  0
    2.7364   -3.3494   14.5221 C   0  0  0  0  0  0  0  0  0  0  0  0
   -0.5574   -2.1612   13.5538 O   0  0  0  0  0  0  0  0  0  0  0  0
   -1.2109   -1.8691   14.7750 C   0  0  0  0  0  0  0  0  0  0  0  0
   -2.5487   -1.1704   14.4934 C   0  0  0  0  0  0  0  0  0  0  0  0
   -3.4448   -2.2252   13.9068 C   0  0  0  0  0  0  0  0  0  0  0  0
   -4.9051   -1.9035   14.0861 C   0  0  0  0  0  0  0  0  0  0  0  0
   -5.3944   -1.0610   13.0819 O   0  0  0  0  0  0  0  0  0  0  0  0
   -6.4557   -1.4577   12.2866 C   0  0  0  0  0  0  0  0  0  0  0  0
   -6.5648   -1.0253   10.9832 C   0  0  0  0  0  0  0  0  0  0  0  0
   -7.6209   -1.4069   10.1588 C   0  0  0  0  0  0  0  0  0  0  0  0
   -8.5652   -2.2450   10.7029 C   0  0  0  0  0  0  0  0  0  0  0  0
   -8.4784   -2.6844   11.9851 C   0  0  0  0  0  0  0  0  0  0  0  0
   -7.4193   -2.2981   12.8036 C   0  0  0  0  0  0  0  0  0  0  0  0
   -7.7142   -0.9760    8.8872 F   0  0  0  0  0  0  0  0  0  0  0  0
   -5.5965   -0.1998   10.5125 F   0  0  0  0  0  0  0  0  0  0  0  0
    3.2208   -3.0327   10.9516 F   0  0  0  0  0  0  0  0  0  0  0  0
    9.3147   -1.7554   10.0265 C   0  0  0  0  0  0  0  0  0  0  0  0
    9.5381   -2.6985   10.8184 O   0  0  0  0  0  0  0  0  0  0  0  0
   10.3962   -0.9567    9.7076 O   0  0  0  0  0  0  0  0  0  0  0  0
  1  2  1  0
  2  3  1  0
  3  4  1  0
  4  5  2  0
  5  6  1  0
  6  7  2  0
  7  8  1  0
  8  9  2  0
  9 10  1  0
 10 11  1  0
 11 12  1  0
 12 13  1  0
 13 14  1  0
 14 15  2  0
 14 16  1  0
  5 17  1  0
 17 18  1  0
 18 19  2  0
 18 20  1  0
 20 21  2  0
 21 22  1  0
 22 23  2  0
 23 24  1  0
 24 25  2  0
 23 26  1  0
 26 27  1  0
 27 28  1  0
 28 29  1  0
 29 30  1  0
 30 31  1  0
 31 32  1  0
 32 33  2  0
 33 34  1  0
 34 35  2  0
 35 36  1  0
 36 37  2  0
 34 38  1  0
 33 39  1  0
 21 40  1  0
  2 41  1  0
 41 42  2  0
 41 43  1  0
 10  1  1  0
  9  4  1  0
 25 20  1  0
 37 32  1  0
M  END
$$$$
