
     RDKit          3D

 43 46  0  0  0  0  0  0  0  0999 V2000
    2.8635    5.3306  -22.6726 C   0  0  0  0  0  0  0  0  0  0  0  0
    2.1070    6.0916  -21.6270 C   0  0  0  0  0  0  0  0  0  0  0  0
    1.8113    5.1878  -20.5703 O   0  0  0  0  0  0  0  0  0  0  0  0
    1.1074    4.0247  -20.8797 C   0  0  0  0  0  0  0  0  0  0  0  0
    0.3051    3.4794  -19.9168 C   0  0  0  0  0  0  0  0  0  0  0  0
   -0.3961    2.3259  -20.2201 C   0  0  0  0  0  0  0  0  0  0  0  0
   -0.2634    1.7730  -21.4659 C   0  0  0  0  0  0  0  0  0  0  0  0
    0.5655    2.3608  -22.4158 C   0  0  0  0  0  0  0  0  0  0  0  0
    1.2789    3.5075  -22.1497 C   0  0  0  0  0  0  0  0  0  0  0  0
    2.1490    4.1508  -23.0886 N   0  0  0  0  0  0  0  0  0  0  0  0
    2.2727    3.5607  -24.3855 C   0  0  0  0  0  0  0  0  0  0  0  0
    3.2119    2.4403  -24.6058 C   0  0  0  0  0  0  0  0  0  0  0  0
    2.7508    1.2777  -25.4288 C   0  0  0  0  0  0  0  0  0  0  0  0
    2.4197    0.1780  -24.4529 C   0  0  0  0  0  0  0  0  0  0  0  0
    1.2464   -0.2032  -24.2358 O   0  0  0  0  0  0  0  0  0  0  0  0
    3.4927   -0.4024  -23.7944 O   0  0  0  0  0  0  0  0  0  0  0  0
    0.1495    4.0309  -18.5871 N   0  0  0  0  0  0  0  0  0  0  0  0
   -0.2676    3.2245  -17.5310 C   0  0  0  0  0  0  0  0  0  0  0  0
   -0.6755    2.0489  -17.8187 O   0  0  0  0  0  0  0  0  0  0  0  0
   -0.2700    3.6223  -16.1536 C   0  0  0  0  0  0  0  0  0  0  0  0
    0.1420    2.8196  -15.1208 C   0  0  0  0  0  0  0  0  0  0  0  0
    0.1373    3.2249  -13.7956 C   0  0  0  0  0  0  0  0  0  0  0  0
   -0.3033    4.4932  -13.5149 C   0  0  0  0  0  0  0  0  0  0  0  0
   -0.7295    5.3416  -14.5242 C   0  0  0  0  0  0  0  0  0  0  0  0
   -0.7109    4.9077  -15.8200 C   0  0  0  0  0  0  0  0  0  0  0  0
   -0.3160    4.9105  -12.2086 O   0  0  0  0  0  0  0  0  0  0  0  0
    0.1590    4.1221  -11.1331 C   0  0  0  0  0  0  0  0  0  0  0  0
    0.1860    4.9607   -9.8473 C   0  0  0  0  0  0  0  0  0  0  0  0
    1.6131    5.4014   -9.6771 C   0  0  0  0  0  0  0  0  0  0  0  0
    1.8548    6.0661   -8.3476 C   0  0  0  0  0  0  0  0  0  0  0  0
    3.1247    6.6474   -8.2632 O   0  0  0  0  0  0  0  0  0  0  0  0
    3.5444    7.2527   -7.0912 C   0  0  0  0  0  0  0  0  0  0  0  0
    4.8723    7.5571   -6.8870 C   0  0  0  0  0  0  0  0  0  0  0  0
    5.3248    8.1658   -5.7185 C   0  0  0  0  0  0  0  0  0  0  0  0
    4.3816    8.4564   -4.7614 C   0  0  0  0  0  0  0  0  0  0  0  0
    3.0670    8.1659   -4.9406 C   0  0  0  0  0  0  0  0  0  0  0  0
    2.6222    7.5569   -6.1118 C   0  0  0  0  0  0  0  0  0  0  0  0
    6.6256    8.4569   -5.5332 F   0  0  0  0  0  0  0  0  0  0  0  0
    5.7476    7.2418   -7.8744 F   0  0  0  0  0  0  0  0  0  0  0  0
    0.5739    1.5610  -15.3381 F   0  0  0  0  0  0  0  0  0  0  0  0
    0.9384    6.8014  -22.1387 C   0  0  0  0  0  0  0  0  0  0  0  0
   -0.1924    6.7631  -21.6037 O   0  0  0  0  0  0  0  0  0  0  0  0
    1.0484    7.5726  -23.2799 O   0  0  0  0  0  0  0  0  0  0  0  0
  1  2  1  0
  2  3  1  0
  3  4  1  0
  4  5  2  0
  5  6  1  0
  6  7  2  0
  7  8  1  0
  8  9  2  0
  9 10  1  0
 10 11  1  0
 11 12  1  0
 12 13  1  0
 13 14  1  0
 14 15  2  0
 14 16  1  0
  5 17  1  0
 17 18  1  0
 18 19  2  0
 18 20  1  0
 20 21  2  0
 21 22  1  0
 22 23  2  0
 23 24  1  0
 24 25  2  0
 23 26  1  0
 26 27  1  0
 27 28  1  0
 28 29  1  0
 29 30  1  0
 30 31  1  0
 31 32  1  0
 32 33  2  0
 33 34  1  0
 34 35  2  0
 35 36  1  0
 36 37  2  0
 34 38  1  0
 33 39  1  0
 21 40  1  0
  2 41  1  0
 41 42  2  0
 41 43  1  0
 10  1  1  0
  9  4  1  0
 25 20  1  0
 37 32  1  0
M  END
$$$$
