
     RDKit          3D

 43 46  0  0  0  0  0  0  0  0999 V2000
   -4.3524   -1.2577   15.6178 C   0  0  0  0  0  0  0  0  0  0  0  0
   -2.9615   -0.9079   16.0511 C   0  0  0  0  0  0  0  0  0  0  0  0
   -2.2338   -0.5311   14.8896 O   0  0  0  0  0  0  0  0  0  0  0  0
   -2.1627   -1.4416   13.8360 C   0  0  0  0  0  0  0  0  0  0  0  0
   -1.0571   -1.4154   13.0327 C   0  0  0  0  0  0  0  0  0  0  0  0
   -0.9820   -2.3179   11.9868 C   0  0  0  0  0  0  0  0  0  0  0  0
   -2.0107   -3.2008   11.7927 C   0  0  0  0  0  0  0  0  0  0  0  0
   -3.1184   -3.1920   12.6341 C   0  0  0  0  0  0  0  0  0  0  0  0
   -3.2281   -2.3083   13.6838 C   0  0  0  0  0  0  0  0  0  0  0  0
   -4.3472   -2.2535   14.5766 N   0  0  0  0  0  0  0  0  0  0  0  0
   -5.4106   -3.1850   14.3603 C   0  0  0  0  0  0  0  0  0  0  0  0
   -6.8028   -2.7058   14.2257 C   0  0  0  0  0  0  0  0  0  0  0  0
   -7.1994   -2.0219   12.9544 C   0  0  0  0  0  0  0  0  0  0  0  0
   -8.6343   -1.5987   13.1356 C   0  0  0  0  0  0  0  0  0  0  0  0
   -9.3344   -1.9773   14.1029 O   0  0  0  0  0  0  0  0  0  0  0  0
   -9.1535   -0.7562   12.1647 O   0  0  0  0  0  0  0  0  0  0  0  0
    0.0433   -0.4896   13.2023 N   0  0  0  0  0  0  0  0  0  0  0  0
    1.0463   -0.3990   12.2403 C   0  0  0  0  0  0  0  0  0  0  0  0
    0.7025   -0.5566   11.0204 O   0  0  0  0  0  0  0  0  0  0  0  0
    2.4279   -0.1431   12.5254 C   0  0  0  0  0  0  0  0  0  0  0  0
    3.0870    1.0049   12.1669 C   0  0  0  0  0  0  0  0  0  0  0  0
    4.4223    1.2359   12.4568 C   0  0  0  0  0  0  0  0  0  0  0  0
    5.1086    0.2615   13.1358 C   0  0  0  0  0  0  0  0  0  0  0  0
    4.4863   -0.9156   13.5196 C   0  0  0  0  0  0  0  0  0  0  0  0
    3.1677   -1.1089   13.2165 C   0  0  0  0  0  0  0  0  0  0  0  0
    6.4313    0.4728   13.4298 O   0  0  0  0  0  0  0  0  0  0  0  0
    7.4073   -0.5523   13.4144 C   0  0  0  0  0  0  0  0  0  0  0  0
    8.7472    0.0143   12.9234 C   0  0  0  0  0  0  0  0  0  0  0  0
    9.3628   -1.0664   12.0791 C   0  0  0  0  0  0  0  0  0  0  0  0
    8.7114   -1.1800   10.7260 C   0  0  0  0  0  0  0  0  0  0  0  0
    9.5783   -1.6966    9.7568 O   0  0  0  0  0  0  0  0  0  0  0  0
    9.1536   -1.8607    8.4496 C   0  0  0  0  0  0  0  0  0  0  0  0
    9.9435   -2.5062    7.5237 C   0  0  0  0  0  0  0  0  0  0  0  0
    9.5437   -2.6864    6.2014 C   0  0  0  0  0  0  0  0  0  0  0  0
    8.3116   -2.1884    5.8493 C   0  0  0  0  0  0  0  0  0  0  0  0
    7.5155   -1.5488    6.7447 C   0  0  0  0  0  0  0  0  0  0  0  0
    7.9224   -1.3722    8.0653 C   0  0  0  0  0  0  0  0  0  0  0  0
   10.3266   -3.3190    5.3080 F   0  0  0  0  0  0  0  0  0  0  0  0
   11.1473   -2.9720    7.9414 F   0  0  0  0  0  0  0  0  0  0  0  0
    2.4645    1.9902   11.4890 F   0  0  0  0  0  0  0  0  0  0  0  0
   -2.3084   -1.9451   16.8441 C   0  0  0  0  0  0  0  0  0  0  0  0
   -1.0735   -2.1485   16.8480 O   0  0  0  0  0  0  0  0  0  0  0  0
   -3.0659   -2.7714   17.6519 O   0  0  0  0  0  0  0  0  0  0  0  0
  1  2  1  0
  2  3  1  0
  3  4  1  0
  4  5  2  0
  5  6  1  0
  6  7  2  0
  7  8  1  0
  8  9  2  0
  9 10  1  0
 10 11  1  0
 11 12  1  0
 12 13  1  0
 13 14  1  0
 14 15  2  0
 14 16  1  0
  5 17  1  0
 17 18  1  0
 18 19  2  0
 18 20  1  0
 20 21  2  0
 21 22  1  0
 22 23  2  0
 23 24  1  0
 24 25  2  0
 23 26  1  0
 26 27  1  0
 27 28  1  0
 28 29  1  0
 29 30  1  0
 30 31  1  0
 31 32  1  0
 32 33  2  0
 33 34  1  0
 34 35  2  0
 35 36  1  0
 36 37  2  0
 34 38  1  0
 33 39  1  0
 21 40  1  0
  2 41  1  0
 41 42  2  0
 41 43  1  0
 10  1  1  0
  9  4  1  0
 25 20  1  0
 37 32  1  0
M  END
$$$$
