
     RDKit          3D

 43 46  0  0  0  0  0  0  0  0999 V2000
   -2.0985    3.0375   19.2710 C   0  0  0  0  0  0  0  0  0  0  0  0
   -0.7292    2.8157   18.7049 C   0  0  0  0  0  0  0  0  0  0  0  0
   -0.8631    1.9409   17.5923 O   0  0  0  0  0  0  0  0  0  0  0  0
   -1.4714    0.7036   17.8002 C   0  0  0  0  0  0  0  0  0  0  0  0
   -1.0933   -0.3437   17.0075 C   0  0  0  0  0  0  0  0  0  0  0  0
   -1.6936   -1.5734   17.2112 C   0  0  0  0  0  0  0  0  0  0  0  0
   -2.6398   -1.6991   18.1931 C   0  0  0  0  0  0  0  0  0  0  0  0
   -2.9954   -0.6060   18.9765 C   0  0  0  0  0  0  0  0  0  0  0  0
   -2.4205    0.6325   18.8020 C   0  0  0  0  0  0  0  0  0  0  0  0
   -2.7526    1.7909   19.5768 N   0  0  0  0  0  0  0  0  0  0  0  0
   -3.7407    1.6399   20.5996 C   0  0  0  0  0  0  0  0  0  0  0  0
   -5.1423    2.0345   20.3433 C   0  0  0  0  0  0  0  0  0  0  0  0
   -5.6457    1.9943   18.9339 C   0  0  0  0  0  0  0  0  0  0  0  0
   -7.1280    2.2547   19.0102 C   0  0  0  0  0  0  0  0  0  0  0  0
   -7.7436    2.9197   18.1454 O   0  0  0  0  0  0  0  0  0  0  0  0
   -7.7910    1.7150   20.1015 O   0  0  0  0  0  0  0  0  0  0  0  0
   -0.1049   -0.2442   15.9539 N   0  0  0  0  0  0  0  0  0  0  0  0
    0.2605   -1.3687   15.2182 C   0  0  0  0  0  0  0  0  0  0  0  0
   -0.6467   -2.2380   14.9892 O   0  0  0  0  0  0  0  0  0  0  0  0
    1.5766   -1.6144   14.7051 C   0  0  0  0  0  0  0  0  0  0  0  0
    2.4590   -0.6273   14.3477 C   0  0  0  0  0  0  0  0  0  0  0  0
    3.7297   -0.8854   13.8586 C   0  0  0  0  0  0  0  0  0  0  0  0
    4.1128   -2.1961   13.7298 C   0  0  0  0  0  0  0  0  0  0  0  0
    3.2568   -3.2286   14.0778 C   0  0  0  0  0  0  0  0  0  0  0  0
    2.0106   -2.9363   14.5569 C   0  0  0  0  0  0  0  0  0  0  0  0
    5.3666   -2.4699   13.2460 O   0  0  0  0  0  0  0  0  0  0  0  0
    5.8766   -3.7821   13.0988 C   0  0  0  0  0  0  0  0  0  0  0  0
    7.3615   -3.7215   12.7134 C   0  0  0  0  0  0  0  0  0  0  0  0
    7.3952   -3.7580   11.2109 C   0  0  0  0  0  0  0  0  0  0  0  0
    7.2958   -2.3851   10.6001 C   0  0  0  0  0  0  0  0  0  0  0  0
    8.3188   -2.1340    9.6793 O   0  0  0  0  0  0  0  0  0  0  0  0
    8.3557   -0.9416    8.9772 C   0  0  0  0  0  0  0  0  0  0  0  0
    9.3683   -0.6779    8.0811 C   0  0  0  0  0  0  0  0  0  0  0  0
    9.4325    0.5125    7.3603 C   0  0  0  0  0  0  0  0  0  0  0  0
    8.4315    1.4290    7.5798 C   0  0  0  0  0  0  0  0  0  0  0  0
    7.4230    1.1910    8.4579 C   0  0  0  0  0  0  0  0  0  0  0  0
    7.3658   -0.0018    9.1753 C   0  0  0  0  0  0  0  0  0  0  0  0
   10.4283    0.7560    6.4884 F   0  0  0  0  0  0  0  0  0  0  0  0
   10.3226   -1.6278    7.9149 F   0  0  0  0  0  0  0  0  0  0  0  0
    2.1310    0.6769   14.4432 F   0  0  0  0  0  0  0  0  0  0  0  0
    0.2547    2.3716   19.6876 C   0  0  0  0  0  0  0  0  0  0  0  0
    1.2578    1.6772   19.4081 O   0  0  0  0  0  0  0  0  0  0  0  0
    0.1037    2.7194   21.0163 O   0  0  0  0  0  0  0  0  0  0  0  0
  1  2  1  0
  2  3  1  0
  3  4  1  0
  4  5  2  0
  5  6  1  0
  6  7  2  0
  7  8  1  0
  8  9  2  0
  9 10  1  0
 10 11  1  0
 11 12  1  0
 12 13  1  0
 13 14  1  0
 14 15  2  0
 14 16  1  0
  5 17  1  0
 17 18  1  0
 18 19  2  0
 18 20  1  0
 20 21  2  0
 21 22  1  0
 22 23  2  0
 23 24  1  0
 24 25  2  0
 23 26  1  0
 26 27  1  0
 27 28  1  0
 28 29  1  0
 29 30  1  0
 30 31  1  0
 31 32  1  0
 32 33  2  0
 33 34  1  0
 34 35  2  0
 35 36  1  0
 36 37  2  0
 34 38  1  0
 33 39  1  0
 21 40  1  0
  2 41  1  0
 41 42  2  0
 41 43  1  0
 10  1  1  0
  9  4  1  0
 25 20  1  0
 37 32  1  0
M  END
$$$$
