
     RDKit          3D

 43 46  0  0  0  0  0  0  0  0999 V2000
    6.2882    4.2723    9.3922 C   0  0  0  0  0  0  0  0  0  0  0  0
    5.0478    3.5764    9.8631 C   0  0  0  0  0  0  0  0  0  0  0  0
    5.4537    2.4737   10.6632 O   0  0  0  0  0  0  0  0  0  0  0  0
    6.3116    1.5323   10.0959 C   0  0  0  0  0  0  0  0  0  0  0  0
    6.2375    0.2411   10.5381 C   0  0  0  0  0  0  0  0  0  0  0  0
    7.0863   -0.6965    9.9770 C   0  0  0  0  0  0  0  0  0  0  0  0
    7.9660   -0.3020    9.0045 C   0  0  0  0  0  0  0  0  0  0  0  0
    8.0085    1.0235    8.5849 C   0  0  0  0  0  0  0  0  0  0  0  0
    7.1805    1.9836    9.1207 C   0  0  0  0  0  0  0  0  0  0  0  0
    7.1860    3.3617    8.7288 N   0  0  0  0  0  0  0  0  0  0  0  0
    8.1093    3.7544    7.7098 C   0  0  0  0  0  0  0  0  0  0  0  0
    7.6147    4.1924    6.3871 C   0  0  0  0  0  0  0  0  0  0  0  0
    8.3630    3.7529    5.1672 C   0  0  0  0  0  0  0  0  0  0  0  0
    7.7033    4.4408    3.9998 C   0  0  0  0  0  0  0  0  0  0  0  0
    7.6397    5.6876    3.8971 O   0  0  0  0  0  0  0  0  0  0  0  0
    7.1600    3.6154    3.0275 O   0  0  0  0  0  0  0  0  0  0  0  0
    5.3277   -0.2084   11.5710 N   0  0  0  0  0  0  0  0  0  0  0  0
    5.3941   -1.5131   12.0535 C   0  0  0  0  0  0  0  0  0  0  0  0
    6.4566   -2.1760   11.8028 O   0  0  0  0  0  0  0  0  0  0  0  0
    4.3577   -2.1572   12.8064 C   0  0  0  0  0  0  0  0  0  0  0  0
    4.2510   -3.5156   12.9614 C   0  0  0  0  0  0  0  0  0  0  0  0
    3.2443   -4.1190   13.6983 C   0  0  0  0  0  0  0  0  0  0  0  0
    2.3145   -3.3079   14.2975 C   0  0  0  0  0  0  0  0  0  0  0  0
    2.3802   -1.9297   14.1701 C   0  0  0  0  0  0  0  0  0  0  0  0
    3.3873   -1.3695   13.4354 C   0  0  0  0  0  0  0  0  0  0  0  0
    1.3105   -3.8882   15.0295 O   0  0  0  0  0  0  0  0  0  0  0  0
    0.3480   -4.7658   14.4752 C   0  0  0  0  0  0  0  0  0  0  0  0
   -0.5277   -5.3487   15.5935 C   0  0  0  0  0  0  0  0  0  0  0  0
   -1.6363   -4.3554   15.8039 C   0  0  0  0  0  0  0  0  0  0  0  0
   -2.3643   -4.0274   14.5270 C   0  0  0  0  0  0  0  0  0  0  0  0
   -3.3506   -3.0519   14.7091 O   0  0  0  0  0  0  0  0  0  0  0  0
   -4.5654   -3.1492   14.0526 C   0  0  0  0  0  0  0  0  0  0  0  0
   -4.6257   -3.5038   12.7228 C   0  0  0  0  0  0  0  0  0  0  0  0
   -5.8326   -3.6097   12.0351 C   0  0  0  0  0  0  0  0  0  0  0  0
   -6.9798   -3.3433   12.7445 C   0  0  0  0  0  0  0  0  0  0  0  0
   -6.9450   -2.9922   14.0561 C   0  0  0  0  0  0  0  0  0  0  0  0
   -5.7340   -2.8881   14.7369 C   0  0  0  0  0  0  0  0  0  0  0  0
   -5.8757   -3.9570   10.7356 F   0  0  0  0  0  0  0  0  0  0  0  0
   -3.4540   -3.7524   12.0856 F   0  0  0  0  0  0  0  0  0  0  0  0
    5.1304   -4.3599   12.3856 F   0  0  0  0  0  0  0  0  0  0  0  0
    4.1252    3.2171    8.7904 C   0  0  0  0  0  0  0  0  0  0  0  0
    3.3146    2.2656    8.8548 O   0  0  0  0  0  0  0  0  0  0  0  0
    4.1164    3.9485    7.6181 O   0  0  0  0  0  0  0  0  0  0  0  0
  1  2  1  0
  2  3  1  0
  3  4  1  0
  4  5  2  0
  5  6  1  0
  6  7  2  0
  7  8  1  0
  8  9  2  0
  9 10  1  0
 10 11  1  0
 11 12  1  0
 12 13  1  0
 13 14  1  0
 14 15  2  0
 14 16  1  0
  5 17  1  0
 17 18  1  0
 18 19  2  0
 18 20  1  0
 20 21  2  0
 21 22  1  0
 22 23  2  0
 23 24  1  0
 24 25  2  0
 23 26  1  0
 26 27  1  0
 27 28  1  0
 28 29  1  0
 29 30  1  0
 30 31  1  0
 31 32  1  0
 32 33  2  0
 33 34  1  0
 34 35  2  0
 35 36  1  0
 36 37  2  0
 34 38  1  0
 33 39  1  0
 21 40  1  0
  2 41  1  0
 41 42  2  0
 41 43  1  0
 10  1  1  0
  9  4  1  0
 25 20  1  0
 37 32  1  0
M  END
$$$$
