
     RDKit          3D

 43 46  0  0  0  0  0  0  0  0999 V2000
   -1.4731    3.2848   18.9914 C   0  0  0  0  0  0  0  0  0  0  0  0
   -0.5648    2.7223   17.9410 C   0  0  0  0  0  0  0  0  0  0  0  0
   -1.2927    1.7258   17.2353 O   0  0  0  0  0  0  0  0  0  0  0  0
   -1.8427    0.6738   17.9668 C   0  0  0  0  0  0  0  0  0  0  0  0
   -1.9871   -0.5368   17.3490 C   0  0  0  0  0  0  0  0  0  0  0  0
   -2.5313   -1.5836   18.0716 C   0  0  0  0  0  0  0  0  0  0  0  0
   -2.9047   -1.3731   19.3722 C   0  0  0  0  0  0  0  0  0  0  0  0
   -2.7408   -0.1237   19.9615 C   0  0  0  0  0  0  0  0  0  0  0  0
   -2.2040    0.9409   19.2736 C   0  0  0  0  0  0  0  0  0  0  0  0
   -2.0176    2.2478   19.8302 N   0  0  0  0  0  0  0  0  0  0  0  0
   -2.4106    2.4481   21.1906 C   0  0  0  0  0  0  0  0  0  0  0  0
   -3.8385    2.3853   21.5689 C   0  0  0  0  0  0  0  0  0  0  0  0
   -4.7606    3.4402   21.0413 C   0  0  0  0  0  0  0  0  0  0  0  0
   -6.1194    3.1362   21.6179 C   0  0  0  0  0  0  0  0  0  0  0  0
   -6.5585    1.9690   21.7364 O   0  0  0  0  0  0  0  0  0  0  0  0
   -6.8749    4.2275   22.0181 O   0  0  0  0  0  0  0  0  0  0  0  0
   -1.6132   -0.7919   15.9735 N   0  0  0  0  0  0  0  0  0  0  0  0
   -1.1123   -2.0351   15.5954 C   0  0  0  0  0  0  0  0  0  0  0  0
   -1.4681   -3.0452   16.2914 O   0  0  0  0  0  0  0  0  0  0  0  0
   -0.2309   -2.2554   14.4864 C   0  0  0  0  0  0  0  0  0  0  0  0
   -0.4277   -1.7353   13.2328 C   0  0  0  0  0  0  0  0  0  0  0  0
    0.4395   -1.9554   12.1745 C   0  0  0  0  0  0  0  0  0  0  0  0
    1.5458   -2.7333   12.4037 C   0  0  0  0  0  0  0  0  0  0  0  0
    1.7882   -3.2809   13.6533 C   0  0  0  0  0  0  0  0  0  0  0  0
    0.9107   -3.0424   14.6736 C   0  0  0  0  0  0  0  0  0  0  0  0
    2.4142   -2.9626   11.3673 O   0  0  0  0  0  0  0  0  0  0  0  0
    3.6557   -2.2971   11.2280 C   0  0  0  0  0  0  0  0  0  0  0  0
    4.2842   -2.6497    9.8723 C   0  0  0  0  0  0  0  0  0  0  0  0
    4.7810   -1.3505    9.3022 C   0  0  0  0  0  0  0  0  0  0  0  0
    5.8727   -0.7359   10.1380 C   0  0  0  0  0  0  0  0  0  0  0  0
    7.0950   -1.4013    9.9942 O   0  0  0  0  0  0  0  0  0  0  0  0
    8.2489   -0.8810   10.5546 C   0  0  0  0  0  0  0  0  0  0  0  0
    8.7884    0.3010   10.0967 C   0  0  0  0  0  0  0  0  0  0  0  0
    9.9481    0.8492   10.6402 C   0  0  0  0  0  0  0  0  0  0  0  0
   10.5435    0.1558   11.6671 C   0  0  0  0  0  0  0  0  0  0  0  0
   10.0299   -1.0112   12.1353 C   0  0  0  0  0  0  0  0  0  0  0  0
    8.8699   -1.5533   11.5865 C   0  0  0  0  0  0  0  0  0  0  0  0
   10.4634    2.0049   10.1821 F   0  0  0  0  0  0  0  0  0  0  0  0
    8.1476    0.9314    9.0805 F   0  0  0  0  0  0  0  0  0  0  0  0
   -1.5033   -0.9735   12.9489 F   0  0  0  0  0  0  0  0  0  0  0  0
    0.7210    2.2593   18.4542 C   0  0  0  0  0  0  0  0  0  0  0  0
    1.5346    1.5785   17.7901 O   0  0  0  0  0  0  0  0  0  0  0  0
    1.0978    2.5720   19.7462 O   0  0  0  0  0  0  0  0  0  0  0  0
  1  2  1  0
  2  3  1  0
  3  4  1  0
  4  5  2  0
  5  6  1  0
  6  7  2  0
  7  8  1  0
  8  9  2  0
  9 10  1  0
 10 11  1  0
 11 12  1  0
 12 13  1  0
 13 14  1  0
 14 15  2  0
 14 16  1  0
  5 17  1  0
 17 18  1  0
 18 19  2  0
 18 20  1  0
 20 21  2  0
 21 22  1  0
 22 23  2  0
 23 24  1  0
 24 25  2  0
 23 26  1  0
 26 27  1  0
 27 28  1  0
 28 29  1  0
 29 30  1  0
 30 31  1  0
 31 32  1  0
 32 33  2  0
 33 34  1  0
 34 35  2  0
 35 36  1  0
 36 37  2  0
 34 38  1  0
 33 39  1  0
 21 40  1  0
  2 41  1  0
 41 42  2  0
 41 43  1  0
 10  1  1  0
  9  4  1  0
 25 20  1  0
 37 32  1  0
M  END
$$$$
