
     RDKit          3D

 43 46  0  0  0  0  0  0  0  0999 V2000
    6.6975    2.4755   12.9861 C   0  0  0  0  0  0  0  0  0  0  0  0
    5.6007    1.6602   13.6000 C   0  0  0  0  0  0  0  0  0  0  0  0
    5.9557    0.2909   13.4592 O   0  0  0  0  0  0  0  0  0  0  0  0
    6.2128   -0.1915   12.1764 C   0  0  0  0  0  0  0  0  0  0  0  0
    5.9535   -1.5082   11.9172 C   0  0  0  0  0  0  0  0  0  0  0  0
    6.2061   -1.9907   10.6454 C   0  0  0  0  0  0  0  0  0  0  0  0
    6.7041   -1.1389    9.6958 C   0  0  0  0  0  0  0  0  0  0  0  0
    6.9545    0.1944   10.0033 C   0  0  0  0  0  0  0  0  0  0  0  0
    6.7164    0.7093   11.2575 C   0  0  0  0  0  0  0  0  0  0  0  0
    6.9604    2.0714   11.6285 N   0  0  0  0  0  0  0  0  0  0  0  0
    7.4777    2.9469   10.6229 C   0  0  0  0  0  0  0  0  0  0  0  0
    6.8429    4.2605   10.3827 C   0  0  0  0  0  0  0  0  0  0  0  0
    7.6736    5.3526    9.7841 C   0  0  0  0  0  0  0  0  0  0  0  0
    7.0469    6.6486   10.2297 C   0  0  0  0  0  0  0  0  0  0  0  0
    6.4521    6.7711   11.3253 O   0  0  0  0  0  0  0  0  0  0  0  0
    7.1607    7.7184    9.3553 O   0  0  0  0  0  0  0  0  0  0  0  0
    5.4373   -2.4388   12.8992 N   0  0  0  0  0  0  0  0  0  0  0  0
    4.6913   -3.5455   12.5014 C   0  0  0  0  0  0  0  0  0  0  0  0
    5.3096   -4.4757   11.8821 O   0  0  0  0  0  0  0  0  0  0  0  0
    3.2868   -3.7092   12.7384 C   0  0  0  0  0  0  0  0  0  0  0  0
    2.5146   -4.6752   12.1456 C   0  0  0  0  0  0  0  0  0  0  0  0
    1.1587   -4.8207   12.3922 C   0  0  0  0  0  0  0  0  0  0  0  0
    0.5706   -3.9501   13.2741 C   0  0  0  0  0  0  0  0  0  0  0  0
    1.3090   -2.9574   13.8983 C   0  0  0  0  0  0  0  0  0  0  0  0
    2.6444   -2.8439   13.6308 C   0  0  0  0  0  0  0  0  0  0  0  0
   -0.7707   -4.0787   13.5289 O   0  0  0  0  0  0  0  0  0  0  0  0
   -1.5730   -5.1097   12.9838 C   0  0  0  0  0  0  0  0  0  0  0  0
   -3.0231   -4.9461   13.4610 C   0  0  0  0  0  0  0  0  0  0  0  0
   -3.8689   -4.9878   12.2190 C   0  0  0  0  0  0  0  0  0  0  0  0
   -4.5606   -3.6773   11.9502 C   0  0  0  0  0  0  0  0  0  0  0  0
   -5.5311   -3.3776   12.9125 O   0  0  0  0  0  0  0  0  0  0  0  0
   -6.3107   -2.2399   12.7941 C   0  0  0  0  0  0  0  0  0  0  0  0
   -7.4633   -2.0907   13.5337 C   0  0  0  0  0  0  0  0  0  0  0  0
   -8.2683   -0.9578   13.4361 C   0  0  0  0  0  0  0  0  0  0  0  0
   -7.8629    0.0215   12.5605 C   0  0  0  0  0  0  0  0  0  0  0  0
   -6.7304   -0.1034   11.8213 C   0  0  0  0  0  0  0  0  0  0  0  0
   -5.9307   -1.2395   11.9241 C   0  0  0  0  0  0  0  0  0  0  0  0
   -9.3919   -0.8263   14.1651 F   0  0  0  0  0  0  0  0  0  0  0  0
   -7.8023   -3.0972   14.3778 F   0  0  0  0  0  0  0  0  0  0  0  0
    3.0380   -5.5498   11.2631 F   0  0  0  0  0  0  0  0  0  0  0  0
    4.2694    1.9782   13.0925 C   0  0  0  0  0  0  0  0  0  0  0  0
    3.3525    1.1368   12.9594 O   0  0  0  0  0  0  0  0  0  0  0  0
    3.9654    3.2757   12.7273 O   0  0  0  0  0  0  0  0  0  0  0  0
  1  2  1  0
  2  3  1  0
  3  4  1  0
  4  5  2  0
  5  6  1  0
  6  7  2  0
  7  8  1  0
  8  9  2  0
  9 10  1  0
 10 11  1  0
 11 12  1  0
 12 13  1  0
 13 14  1  0
 14 15  2  0
 14 16  1  0
  5 17  1  0
 17 18  1  0
 18 19  2  0
 18 20  1  0
 20 21  2  0
 21 22  1  0
 22 23  2  0
 23 24  1  0
 24 25  2  0
 23 26  1  0
 26 27  1  0
 27 28  1  0
 28 29  1  0
 29 30  1  0
 30 31  1  0
 31 32  1  0
 32 33  2  0
 33 34  1  0
 34 35  2  0
 35 36  1  0
 36 37  2  0
 34 38  1  0
 33 39  1  0
 21 40  1  0
  2 41  1  0
 41 42  2  0
 41 43  1  0
 10  1  1  0
  9  4  1  0
 25 20  1  0
 37 32  1  0
M  END
$$$$
