
     RDKit          3D

 43 46  0  0  0  0  0  0  0  0999 V2000
   -0.0825    2.2249   18.3801 C   0  0  0  0  0  0  0  0  0  0  0  0
    1.2226    1.8234   17.7634 C   0  0  0  0  0  0  0  0  0  0  0  0
    0.9303    0.9980   16.6436 O   0  0  0  0  0  0  0  0  0  0  0  0
    0.1602   -0.1451   16.8544 C   0  0  0  0  0  0  0  0  0  0  0  0
    0.3604   -1.2196   16.0338 C   0  0  0  0  0  0  0  0  0  0  0  0
   -0.4010   -2.3563   16.2403 C   0  0  0  0  0  0  0  0  0  0  0  0
   -1.3231   -2.3664   17.2527 C   0  0  0  0  0  0  0  0  0  0  0  0
   -1.4949   -1.2495   18.0638 C   0  0  0  0  0  0  0  0  0  0  0  0
   -0.7565   -0.1012   17.8875 C   0  0  0  0  0  0  0  0  0  0  0  0
   -0.8962    1.0772   18.6902 N   0  0  0  0  0  0  0  0  0  0  0  0
   -1.8620    1.0471   19.7445 C   0  0  0  0  0  0  0  0  0  0  0  0
   -2.9780    2.0169   19.7583 C   0  0  0  0  0  0  0  0  0  0  0  0
   -4.2025    1.7028   18.9563 C   0  0  0  0  0  0  0  0  0  0  0  0
   -4.9793    2.9902   18.8550 C   0  0  0  0  0  0  0  0  0  0  0  0
   -5.2045    3.5604   17.7626 O   0  0  0  0  0  0  0  0  0  0  0  0
   -5.4412    3.5244   20.0480 O   0  0  0  0  0  0  0  0  0  0  0  0
    1.3182   -1.2400   14.9481 N   0  0  0  0  0  0  0  0  0  0  0  0
    0.9341   -1.6486   13.6733 C   0  0  0  0  0  0  0  0  0  0  0  0
   -0.1966   -2.2320   13.5621 O   0  0  0  0  0  0  0  0  0  0  0  0
    1.7168   -1.4603   12.4869 C   0  0  0  0  0  0  0  0  0  0  0  0
    1.2625   -0.8266   11.3588 C   0  0  0  0  0  0  0  0  0  0  0  0
    2.0370   -0.6495   10.2233 C   0  0  0  0  0  0  0  0  0  0  0  0
    3.3193   -1.1361   10.2399 C   0  0  0  0  0  0  0  0  0  0  0  0
    3.8238   -1.7835   11.3563 C   0  0  0  0  0  0  0  0  0  0  0  0
    3.0309   -1.9400   12.4584 C   0  0  0  0  0  0  0  0  0  0  0  0
    4.0995   -0.9708    9.1242 O   0  0  0  0  0  0  0  0  0  0  0  0
    3.8037   -0.0443    8.0957 C   0  0  0  0  0  0  0  0  0  0  0  0
    4.9309    0.9929    7.9916 C   0  0  0  0  0  0  0  0  0  0  0  0
    6.1409    0.2352    7.5208 C   0  0  0  0  0  0  0  0  0  0  0  0
    7.3471    0.4823    8.3879 C   0  0  0  0  0  0  0  0  0  0  0  0
    7.0384    0.4613    9.7524 O   0  0  0  0  0  0  0  0  0  0  0  0
    7.9891    0.0780   10.6826 C   0  0  0  0  0  0  0  0  0  0  0  0
    7.7245    0.1400   12.0331 C   0  0  0  0  0  0  0  0  0  0  0  0
    8.6608   -0.2384   12.9927 C   0  0  0  0  0  0  0  0  0  0  0  0
    9.8781   -0.6835   12.5345 C   0  0  0  0  0  0  0  0  0  0  0  0
   10.1616   -0.7534   11.2080 C   0  0  0  0  0  0  0  0  0  0  0  0
    9.2201   -0.3729   10.2543 C   0  0  0  0  0  0  0  0  0  0  0  0
    8.3877   -0.1721   14.3089 F   0  0  0  0  0  0  0  0  0  0  0  0
    6.5020    0.5891   12.4133 F   0  0  0  0  0  0  0  0  0  0  0  0
    0.0077   -0.3391   11.2836 F   0  0  0  0  0  0  0  0  0  0  0  0
    2.1650    1.2261   18.7048 C   0  0  0  0  0  0  0  0  0  0  0  0
    2.0957    1.3651   19.9467 O   0  0  0  0  0  0  0  0  0  0  0  0
    3.2095    0.4537   18.2341 O   0  0  0  0  0  0  0  0  0  0  0  0
  1  2  1  0
  2  3  1  0
  3  4  1  0
  4  5  2  0
  5  6  1  0
  6  7  2  0
  7  8  1  0
  8  9  2  0
  9 10  1  0
 10 11  1  0
 11 12  1  0
 12 13  1  0
 13 14  1  0
 14 15  2  0
 14 16  1  0
  5 17  1  0
 17 18  1  0
 18 19  2  0
 18 20  1  0
 20 21  2  0
 21 22  1  0
 22 23  2  0
 23 24  1  0
 24 25  2  0
 23 26  1  0
 26 27  1  0
 27 28  1  0
 28 29  1  0
 29 30  1  0
 30 31  1  0
 31 32  1  0
 32 33  2  0
 33 34  1  0
 34 35  2  0
 35 36  1  0
 36 37  2  0
 34 38  1  0
 33 39  1  0
 21 40  1  0
  2 41  1  0
 41 42  2  0
 41 43  1  0
 10  1  1  0
  9  4  1  0
 25 20  1  0
 37 32  1  0
M  END
$$$$
