
     RDKit          3D

 43 46  0  0  0  0  0  0  0  0999 V2000
    8.9137   -2.0271   10.0121 C   0  0  0  0  0  0  0  0  0  0  0  0
    8.2485   -2.7947   11.1135 C   0  0  0  0  0  0  0  0  0  0  0  0
    6.8985   -2.3550   11.1863 O   0  0  0  0  0  0  0  0  0  0  0  0
    6.6612   -0.9943   11.3773 C   0  0  0  0  0  0  0  0  0  0  0  0
    5.5231   -0.6232   12.0370 C   0  0  0  0  0  0  0  0  0  0  0  0
    5.2844    0.7259   12.2296 C   0  0  0  0  0  0  0  0  0  0  0  0
    6.1898    1.6376   11.7560 C   0  0  0  0  0  0  0  0  0  0  0  0
    7.3351    1.2157   11.0887 C   0  0  0  0  0  0  0  0  0  0  0  0
    7.6053   -0.1175   10.8779 C   0  0  0  0  0  0  0  0  0  0  0  0
    8.7657   -0.6056   10.1940 N   0  0  0  0  0  0  0  0  0  0  0  0
    9.7015    0.3610    9.7090 C   0  0  0  0  0  0  0  0  0  0  0  0
    9.5386    0.9412    8.3589 C   0  0  0  0  0  0  0  0  0  0  0  0
    8.9982    0.0672    7.2701 C   0  0  0  0  0  0  0  0  0  0  0  0
    8.9442    0.9245    6.0319 C   0  0  0  0  0  0  0  0  0  0  0  0
    9.3021    2.1249    6.0239 O   0  0  0  0  0  0  0  0  0  0  0  0
    8.4713    0.3126    4.8814 O   0  0  0  0  0  0  0  0  0  0  0  0
    4.5398   -1.5588   12.5414 N   0  0  0  0  0  0  0  0  0  0  0  0
    3.4669   -1.1124   13.3088 C   0  0  0  0  0  0  0  0  0  0  0  0
    3.6910   -0.1593   14.1289 O   0  0  0  0  0  0  0  0  0  0  0  0
    2.1383   -1.6469   13.2408 C   0  0  0  0  0  0  0  0  0  0  0  0
    1.1324   -1.1118   12.4775 C   0  0  0  0  0  0  0  0  0  0  0  0
   -0.1446   -1.6469   12.4209 C   0  0  0  0  0  0  0  0  0  0  0  0
   -0.4041   -2.7667   13.1694 C   0  0  0  0  0  0  0  0  0  0  0  0
    0.5795   -3.3441   13.9564 C   0  0  0  0  0  0  0  0  0  0  0  0
    1.8279   -2.7888   13.9875 C   0  0  0  0  0  0  0  0  0  0  0  0
   -1.6630   -3.3088   13.1264 O   0  0  0  0  0  0  0  0  0  0  0  0
   -2.2921   -3.9098   14.2429 C   0  0  0  0  0  0  0  0  0  0  0  0
   -3.8028   -4.0185   13.9911 C   0  0  0  0  0  0  0  0  0  0  0  0
   -4.4483   -3.0730   14.9654 C   0  0  0  0  0  0  0  0  0  0  0  0
   -3.6086   -1.8492   15.2211 C   0  0  0  0  0  0  0  0  0  0  0  0
   -4.1814   -0.9965   16.1710 O   0  0  0  0  0  0  0  0  0  0  0  0
   -3.4429    0.0338   16.7270 C   0  0  0  0  0  0  0  0  0  0  0  0
   -2.1127   -0.1375   17.0419 C   0  0  0  0  0  0  0  0  0  0  0  0
   -1.3439    0.8801   17.6023 C   0  0  0  0  0  0  0  0  0  0  0  0
   -1.9720    2.0812   17.8329 C   0  0  0  0  0  0  0  0  0  0  0  0
   -3.2821    2.2734   17.5304 C   0  0  0  0  0  0  0  0  0  0  0  0
   -4.0445    1.2508   16.9704 C   0  0  0  0  0  0  0  0  0  0  0  0
   -0.0453    0.6977   17.9049 F   0  0  0  0  0  0  0  0  0  0  0  0
   -1.5583   -1.3492   16.7870 F   0  0  0  0  0  0  0  0  0  0  0  0
    1.3287   -0.0060   11.7314 F   0  0  0  0  0  0  0  0  0  0  0  0
    8.9560   -2.7361   12.3891 C   0  0  0  0  0  0  0  0  0  0  0  0
    9.9213   -1.9732   12.6188 O   0  0  0  0  0  0  0  0  0  0  0  0
    8.5650   -3.5567   13.4298 O   0  0  0  0  0  0  0  0  0  0  0  0
  1  2  1  0
  2  3  1  0
  3  4  1  0
  4  5  2  0
  5  6  1  0
  6  7  2  0
  7  8  1  0
  8  9  2  0
  9 10  1  0
 10 11  1  0
 11 12  1  0
 12 13  1  0
 13 14  1  0
 14 15  2  0
 14 16  1  0
  5 17  1  0
 17 18  1  0
 18 19  2  0
 18 20  1  0
 20 21  2  0
 21 22  1  0
 22 23  2  0
 23 24  1  0
 24 25  2  0
 23 26  1  0
 26 27  1  0
 27 28  1  0
 28 29  1  0
 29 30  1  0
 30 31  1  0
 31 32  1  0
 32 33  2  0
 33 34  1  0
 34 35  2  0
 35 36  1  0
 36 37  2  0
 34 38  1  0
 33 39  1  0
 21 40  1  0
  2 41  1  0
 41 42  2  0
 41 43  1  0
 10  1  1  0
  9  4  1  0
 25 20  1  0
 37 32  1  0
M  END
$$$$
