
     RDKit          3D

 43 46  0  0  0  0  0  0  0  0999 V2000
   -5.5044   -1.8487   12.7401 C   0  0  0  0  0  0  0  0  0  0  0  0
   -4.3250   -1.0813   13.2546 C   0  0  0  0  0  0  0  0  0  0  0  0
   -3.1636   -1.6132   12.6308 O   0  0  0  0  0  0  0  0  0  0  0  0
   -2.9104   -2.9773   12.7706 C   0  0  0  0  0  0  0  0  0  0  0  0
   -1.6104   -3.3987   12.7491 C   0  0  0  0  0  0  0  0  0  0  0  0
   -1.3547   -4.7513   12.8886 C   0  0  0  0  0  0  0  0  0  0  0  0
   -2.4052   -5.6161   13.0423 C   0  0  0  0  0  0  0  0  0  0  0  0
   -3.7136   -5.1439   13.0574 C   0  0  0  0  0  0  0  0  0  0  0  0
   -4.0061   -3.8058   12.9205 C   0  0  0  0  0  0  0  0  0  0  0  0
   -5.3337   -3.2672   12.9245 N   0  0  0  0  0  0  0  0  0  0  0  0
   -6.4180   -4.1852   13.0891 C   0  0  0  0  0  0  0  0  0  0  0  0
   -7.2665   -4.5481   11.9340 C   0  0  0  0  0  0  0  0  0  0  0  0
   -8.1060   -3.4799   11.3052 C   0  0  0  0  0  0  0  0  0  0  0  0
   -9.1386   -4.1941   10.4717 C   0  0  0  0  0  0  0  0  0  0  0  0
   -8.9810   -5.3655   10.0567 O   0  0  0  0  0  0  0  0  0  0  0  0
  -10.2917   -3.4821   10.1796 O   0  0  0  0  0  0  0  0  0  0  0  0
   -0.4768   -2.5142   12.5780 N   0  0  0  0  0  0  0  0  0  0  0  0
    0.7561   -2.8263   13.1456 C   0  0  0  0  0  0  0  0  0  0  0  0
    0.8639   -3.9605   13.7227 O   0  0  0  0  0  0  0  0  0  0  0  0
    1.9031   -1.9664   13.1262 C   0  0  0  0  0  0  0  0  0  0  0  0
    1.8603   -0.6349   12.8006 C   0  0  0  0  0  0  0  0  0  0  0  0
    2.9802    0.1814   12.7930 C   0  0  0  0  0  0  0  0  0  0  0  0
    4.1853   -0.3808   13.1293 C   0  0  0  0  0  0  0  0  0  0  0  0
    4.2795   -1.7217   13.4659 C   0  0  0  0  0  0  0  0  0  0  0  0
    3.1536   -2.4965   13.4625 C   0  0  0  0  0  0  0  0  0  0  0  0
    5.3043    0.4121   13.1257 O   0  0  0  0  0  0  0  0  0  0  0  0
    6.6041   -0.0717   13.4088 C   0  0  0  0  0  0  0  0  0  0  0  0
    7.6006    1.0962   13.4239 C   0  0  0  0  0  0  0  0  0  0  0  0
    8.7910    0.6276   12.6346 C   0  0  0  0  0  0  0  0  0  0  0  0
    8.4486    0.3332   11.1980 C   0  0  0  0  0  0  0  0  0  0  0  0
    9.2793   -0.6445   10.6396 O   0  0  0  0  0  0  0  0  0  0  0  0
    9.0954   -1.0602    9.3321 C   0  0  0  0  0  0  0  0  0  0  0  0
   10.1539   -1.5185    8.5788 C   0  0  0  0  0  0  0  0  0  0  0  0
   10.0002   -1.9431    7.2610 C   0  0  0  0  0  0  0  0  0  0  0  0
    8.7326   -1.8873    6.7318 C   0  0  0  0  0  0  0  0  0  0  0  0
    7.6740   -1.4395    7.4553 C   0  0  0  0  0  0  0  0  0  0  0  0
    7.8356   -1.0162    8.7726 C   0  0  0  0  0  0  0  0  0  0  0  0
   11.0440   -2.3882    6.5373 F   0  0  0  0  0  0  0  0  0  0  0  0
   11.3767   -1.5461    9.1658 F   0  0  0  0  0  0  0  0  0  0  0  0
    0.7051   -0.0335   12.4516 F   0  0  0  0  0  0  0  0  0  0  0  0
   -4.2396   -1.0301   14.7110 C   0  0  0  0  0  0  0  0  0  0  0  0
   -5.1539   -1.4061   15.4786 O   0  0  0  0  0  0  0  0  0  0  0  0
   -3.0961   -0.5440   15.3154 O   0  0  0  0  0  0  0  0  0  0  0  0
  1  2  1  0
  2  3  1  0
  3  4  1  0
  4  5  2  0
  5  6  1  0
  6  7  2  0
  7  8  1  0
  8  9  2  0
  9 10  1  0
 10 11  1  0
 11 12  1  0
 12 13  1  0
 13 14  1  0
 14 15  2  0
 14 16  1  0
  5 17  1  0
 17 18  1  0
 18 19  2  0
 18 20  1  0
 20 21  2  0
 21 22  1  0
 22 23  2  0
 23 24  1  0
 24 25  2  0
 23 26  1  0
 26 27  1  0
 27 28  1  0
 28 29  1  0
 29 30  1  0
 30 31  1  0
 31 32  1  0
 32 33  2  0
 33 34  1  0
 34 35  2  0
 35 36  1  0
 36 37  2  0
 34 38  1  0
 33 39  1  0
 21 40  1  0
  2 41  1  0
 41 42  2  0
 41 43  1  0
 10  1  1  0
  9  4  1  0
 25 20  1  0
 37 32  1  0
M  END
$$$$
