
     RDKit          3D

 43 46  0  0  0  0  0  0  0  0999 V2000
    7.5058    0.7727   12.6117 C   0  0  0  0  0  0  0  0  0  0  0  0
    6.4420    0.3348   13.5716 C   0  0  0  0  0  0  0  0  0  0  0  0
    5.8663   -0.8585   13.0565 O   0  0  0  0  0  0  0  0  0  0  0  0
    5.3280   -0.8252   11.7707 C   0  0  0  0  0  0  0  0  0  0  0  0
    4.2874   -1.6638   11.4839 C   0  0  0  0  0  0  0  0  0  0  0  0
    3.7496   -1.6332   10.2095 C   0  0  0  0  0  0  0  0  0  0  0  0
    4.2743   -0.7700    9.2848 C   0  0  0  0  0  0  0  0  0  0  0  0
    5.3349    0.0655    9.6194 C   0  0  0  0  0  0  0  0  0  0  0  0
    5.8959    0.0620   10.8764 C   0  0  0  0  0  0  0  0  0  0  0  0
    6.9906    0.8973   11.2721 N   0  0  0  0  0  0  0  0  0  0  0  0
    7.5236    1.7943   10.2940 C   0  0  0  0  0  0  0  0  0  0  0  0
    8.5922    1.3442    9.3767 C   0  0  0  0  0  0  0  0  0  0  0  0
    8.8170    2.1165    8.1140 C   0  0  0  0  0  0  0  0  0  0  0  0
    9.9115    1.3954    7.3703 C   0  0  0  0  0  0  0  0  0  0  0  0
    9.6980    0.3779    6.6716 O   0  0  0  0  0  0  0  0  0  0  0  0
   11.1888    1.9191    7.4977 O   0  0  0  0  0  0  0  0  0  0  0  0
    3.7152   -2.5957   12.4330 N   0  0  0  0  0  0  0  0  0  0  0  0
    2.5758   -3.3273   12.1071 C   0  0  0  0  0  0  0  0  0  0  0  0
    2.5336   -3.8574   10.9459 O   0  0  0  0  0  0  0  0  0  0  0  0
    1.4560   -3.5234   12.9806 C   0  0  0  0  0  0  0  0  0  0  0  0
    0.1471   -3.4856   12.5729 C   0  0  0  0  0  0  0  0  0  0  0  0
   -0.9220   -3.6834   13.4322 C   0  0  0  0  0  0  0  0  0  0  0  0
   -0.6455   -3.9281   14.7533 C   0  0  0  0  0  0  0  0  0  0  0  0
    0.6607   -3.9762   15.2132 C   0  0  0  0  0  0  0  0  0  0  0  0
    1.6900   -3.7763   14.3367 C   0  0  0  0  0  0  0  0  0  0  0  0
   -1.6915   -4.1248   15.6181 O   0  0  0  0  0  0  0  0  0  0  0  0
   -3.0499   -3.9927   15.2424 C   0  0  0  0  0  0  0  0  0  0  0  0
   -3.9469   -4.1358   16.4801 C   0  0  0  0  0  0  0  0  0  0  0  0
   -5.1703   -3.3099   16.1956 C   0  0  0  0  0  0  0  0  0  0  0  0
   -5.3677   -3.0632   14.7232 C   0  0  0  0  0  0  0  0  0  0  0  0
   -6.5677   -2.3981   14.4485 O   0  0  0  0  0  0  0  0  0  0  0  0
   -6.8581   -1.9739   13.1632 C   0  0  0  0  0  0  0  0  0  0  0  0
   -8.1573   -1.7342   12.7728 C   0  0  0  0  0  0  0  0  0  0  0  0
   -8.4807   -1.3070   11.4868 C   0  0  0  0  0  0  0  0  0  0  0  0
   -7.4384   -1.1303   10.6079 C   0  0  0  0  0  0  0  0  0  0  0  0
   -6.1498   -1.3602   10.9704 C   0  0  0  0  0  0  0  0  0  0  0  0
   -5.8342   -1.7875   12.2582 C   0  0  0  0  0  0  0  0  0  0  0  0
   -9.7550   -1.0770   11.1199 F   0  0  0  0  0  0  0  0  0  0  0  0
   -9.1353   -1.9292   13.6925 F   0  0  0  0  0  0  0  0  0  0  0  0
   -0.1822   -3.2383   11.2890 F   0  0  0  0  0  0  0  0  0  0  0  0
    5.4639    1.3716   13.8870 C   0  0  0  0  0  0  0  0  0  0  0  0
    4.3191    1.1394   14.3362 O   0  0  0  0  0  0  0  0  0  0  0  0
    5.7852    2.7013   13.6917 O   0  0  0  0  0  0  0  0  0  0  0  0
  1  2  1  0
  2  3  1  0
  3  4  1  0
  4  5  2  0
  5  6  1  0
  6  7  2  0
  7  8  1  0
  8  9  2  0
  9 10  1  0
 10 11  1  0
 11 12  1  0
 12 13  1  0
 13 14  1  0
 14 15  2  0
 14 16  1  0
  5 17  1  0
 17 18  1  0
 18 19  2  0
 18 20  1  0
 20 21  2  0
 21 22  1  0
 22 23  2  0
 23 24  1  0
 24 25  2  0
 23 26  1  0
 26 27  1  0
 27 28  1  0
 28 29  1  0
 29 30  1  0
 30 31  1  0
 31 32  1  0
 32 33  2  0
 33 34  1  0
 34 35  2  0
 35 36  1  0
 36 37  2  0
 34 38  1  0
 33 39  1  0
 21 40  1  0
  2 41  1  0
 41 42  2  0
 41 43  1  0
 10  1  1  0
  9  4  1  0
 25 20  1  0
 37 32  1  0
M  END
$$$$
