
     RDKit          3D

 43 46  0  0  0  0  0  0  0  0999 V2000
    6.2494    0.1329   14.0789 C   0  0  0  0  0  0  0  0  0  0  0  0
    5.4955    0.5746   12.8619 C   0  0  0  0  0  0  0  0  0  0  0  0
    4.3642   -0.2756   12.7276 O   0  0  0  0  0  0  0  0  0  0  0  0
    4.5827   -1.6505   12.6488 C   0  0  0  0  0  0  0  0  0  0  0  0
    3.6906   -2.4071   11.9417 C   0  0  0  0  0  0  0  0  0  0  0  0
    3.9043   -3.7716   11.8601 C   0  0  0  0  0  0  0  0  0  0  0  0
    4.9945   -4.3145   12.4862 C   0  0  0  0  0  0  0  0  0  0  0  0
    5.8768   -3.5070   13.1964 C   0  0  0  0  0  0  0  0  0  0  0  0
    5.6960   -2.1464   13.3001 C   0  0  0  0  0  0  0  0  0  0  0  0
    6.5702   -1.2705   14.0218 N   0  0  0  0  0  0  0  0  0  0  0  0
    7.7051   -1.8548   14.6667 C   0  0  0  0  0  0  0  0  0  0  0  0
    8.8975   -2.2299   13.8771 C   0  0  0  0  0  0  0  0  0  0  0  0
    9.6492   -1.1473   13.1671 C   0  0  0  0  0  0  0  0  0  0  0  0
   10.9735   -1.7470   12.7701 C   0  0  0  0  0  0  0  0  0  0  0  0
   11.7714   -2.2364   13.6026 O   0  0  0  0  0  0  0  0  0  0  0  0
   11.2738   -1.7316   11.4168 O   0  0  0  0  0  0  0  0  0  0  0  0
    2.5225   -1.8684   11.2768 N   0  0  0  0  0  0  0  0  0  0  0  0
    1.3794   -2.6470   11.1135 C   0  0  0  0  0  0  0  0  0  0  0  0
    1.5471   -3.8733   10.7986 O   0  0  0  0  0  0  0  0  0  0  0  0
    0.0376   -2.1679   11.2735 C   0  0  0  0  0  0  0  0  0  0  0  0
   -0.7683   -1.7774   10.2349 C   0  0  0  0  0  0  0  0  0  0  0  0
   -2.0655   -1.3222   10.4099 C   0  0  0  0  0  0  0  0  0  0  0  0
   -2.5569   -1.2634   11.6891 C   0  0  0  0  0  0  0  0  0  0  0  0
   -1.7812   -1.6472   12.7713 C   0  0  0  0  0  0  0  0  0  0  0  0
   -0.5058   -2.0912   12.5606 C   0  0  0  0  0  0  0  0  0  0  0  0
   -3.8384   -0.8141   11.8809 O   0  0  0  0  0  0  0  0  0  0  0  0
   -4.4157   -0.6253   13.1595 C   0  0  0  0  0  0  0  0  0  0  0  0
   -5.7937    0.0360   13.0141 C   0  0  0  0  0  0  0  0  0  0  0  0
   -6.7084   -1.0367   12.4922 C   0  0  0  0  0  0  0  0  0  0  0  0
   -7.8403   -0.4776   11.6711 C   0  0  0  0  0  0  0  0  0  0  0  0
   -8.1053   -1.2460   10.5323 O   0  0  0  0  0  0  0  0  0  0  0  0
   -8.9749   -0.7842    9.5593 C   0  0  0  0  0  0  0  0  0  0  0  0
   -9.6488   -1.6607    8.7374 C   0  0  0  0  0  0  0  0  0  0  0  0
  -10.5297   -1.2263    7.7495 C   0  0  0  0  0  0  0  0  0  0  0  0
  -10.7046    0.1315    7.6234 C   0  0  0  0  0  0  0  0  0  0  0  0
  -10.0515    1.0145    8.4223 C   0  0  0  0  0  0  0  0  0  0  0  0
   -9.1718    0.5724    9.4079 C   0  0  0  0  0  0  0  0  0  0  0  0
  -11.1808   -2.0948    6.9539 F   0  0  0  0  0  0  0  0  0  0  0  0
   -9.4276   -2.9870    8.9183 F   0  0  0  0  0  0  0  0  0  0  0  0
   -0.3330   -1.8041    8.9591 F   0  0  0  0  0  0  0  0  0  0  0  0
    6.3135    0.6607   11.6558 C   0  0  0  0  0  0  0  0  0  0  0  0
    5.8706    0.4933   10.4972 O   0  0  0  0  0  0  0  0  0  0  0  0
    7.6622    0.9428   11.7592 O   0  0  0  0  0  0  0  0  0  0  0  0
  1  2  1  0
  2  3  1  0
  3  4  1  0
  4  5  2  0
  5  6  1  0
  6  7  2  0
  7  8  1  0
  8  9  2  0
  9 10  1  0
 10 11  1  0
 11 12  1  0
 12 13  1  0
 13 14  1  0
 14 15  2  0
 14 16  1  0
  5 17  1  0
 17 18  1  0
 18 19  2  0
 18 20  1  0
 20 21  2  0
 21 22  1  0
 22 23  2  0
 23 24  1  0
 24 25  2  0
 23 26  1  0
 26 27  1  0
 27 28  1  0
 28 29  1  0
 29 30  1  0
 30 31  1  0
 31 32  1  0
 32 33  2  0
 33 34  1  0
 34 35  2  0
 35 36  1  0
 36 37  2  0
 34 38  1  0
 33 39  1  0
 21 40  1  0
  2 41  1  0
 41 42  2  0
 41 43  1  0
 10  1  1  0
  9  4  1  0
 25 20  1  0
 37 32  1  0
M  END
$$$$
