
     RDKit          3D

 43 46  0  0  0  0  0  0  0  0999 V2000
   -2.3284    1.5316   16.3555 C   0  0  0  0  0  0  0  0  0  0  0  0
   -0.8990    1.3417   16.7622 C   0  0  0  0  0  0  0  0  0  0  0  0
   -0.2097    0.7804   15.6528 O   0  0  0  0  0  0  0  0  0  0  0  0
   -0.6896   -0.4149   15.1189 C   0  0  0  0  0  0  0  0  0  0  0  0
    0.2042   -1.2639   14.5286 C   0  0  0  0  0  0  0  0  0  0  0  0
   -0.2676   -2.4516   13.9986 C   0  0  0  0  0  0  0  0  0  0  0  0
   -1.6049   -2.7345   14.0824 C   0  0  0  0  0  0  0  0  0  0  0  0
   -2.4799   -1.8409   14.6911 C   0  0  0  0  0  0  0  0  0  0  0  0
   -2.0469   -0.6498   15.2285 C   0  0  0  0  0  0  0  0  0  0  0  0
   -2.9048    0.3071   15.8616 N   0  0  0  0  0  0  0  0  0  0  0  0
   -4.2977   -0.0068   15.9425 C   0  0  0  0  0  0  0  0  0  0  0  0
   -4.7796   -1.0025   16.9235 C   0  0  0  0  0  0  0  0  0  0  0  0
   -5.0109   -2.4060   16.4567 C   0  0  0  0  0  0  0  0  0  0  0  0
   -6.4212   -2.7545   16.8578 C   0  0  0  0  0  0  0  0  0  0  0  0
   -7.3551   -1.9199   16.8418 O   0  0  0  0  0  0  0  0  0  0  0  0
   -6.6413   -4.0650   17.2530 O   0  0  0  0  0  0  0  0  0  0  0  0
    1.6218   -0.9922   14.4132 N   0  0  0  0  0  0  0  0  0  0  0  0
    2.4542   -1.8622   13.7134 C   0  0  0  0  0  0  0  0  0  0  0  0
    1.9434   -2.9598   13.3065 O   0  0  0  0  0  0  0  0  0  0  0  0
    3.8352   -1.6106   13.4217 C   0  0  0  0  0  0  0  0  0  0  0  0
    4.6541   -2.4903   12.7612 C   0  0  0  0  0  0  0  0  0  0  0  0
    5.9859   -2.2260   12.4836 C   0  0  0  0  0  0  0  0  0  0  0  0
    6.4995   -1.0224   12.8946 C   0  0  0  0  0  0  0  0  0  0  0  0
    5.7118   -0.1006   13.5653 C   0  0  0  0  0  0  0  0  0  0  0  0
    4.4021   -0.3955   13.8217 C   0  0  0  0  0  0  0  0  0  0  0  0
    7.8161   -0.7447   12.6295 O   0  0  0  0  0  0  0  0  0  0  0  0
    8.6468   -1.5799   11.8445 C   0  0  0  0  0  0  0  0  0  0  0  0
    8.1712   -1.5605   10.3849 C   0  0  0  0  0  0  0  0  0  0  0  0
    9.3073   -0.9757    9.5929 C   0  0  0  0  0  0  0  0  0  0  0  0
    8.9590   -0.7894    8.1397 C   0  0  0  0  0  0  0  0  0  0  0  0
    8.8216    0.5587    7.7912 O   0  0  0  0  0  0  0  0  0  0  0  0
    7.5680    1.1052    7.5771 C   0  0  0  0  0  0  0  0  0  0  0  0
    7.4273    2.3813    7.0775 C   0  0  0  0  0  0  0  0  0  0  0  0
    6.1795    2.9584    6.8517 C   0  0  0  0  0  0  0  0  0  0  0  0
    5.0762    2.1946    7.1505 C   0  0  0  0  0  0  0  0  0  0  0  0
    5.1903    0.9343    7.6437 C   0  0  0  0  0  0  0  0  0  0  0  0
    6.4416    0.3641    7.8671 C   0  0  0  0  0  0  0  0  0  0  0  0
    6.0579    4.2065    6.3633 F   0  0  0  0  0  0  0  0  0  0  0  0
    8.5595    3.0773    6.8051 F   0  0  0  0  0  0  0  0  0  0  0  0
    4.2049   -3.6914   12.3448 F   0  0  0  0  0  0  0  0  0  0  0  0
   -0.7295    0.5899   18.0020 C   0  0  0  0  0  0  0  0  0  0  0  0
   -1.6750    0.0866   18.6494 O   0  0  0  0  0  0  0  0  0  0  0  0
    0.5362    0.4009   18.5232 O   0  0  0  0  0  0  0  0  0  0  0  0
  1  2  1  0
  2  3  1  0
  3  4  1  0
  4  5  2  0
  5  6  1  0
  6  7  2  0
  7  8  1  0
  8  9  2  0
  9 10  1  0
 10 11  1  0
 11 12  1  0
 12 13  1  0
 13 14  1  0
 14 15  2  0
 14 16  1  0
  5 17  1  0
 17 18  1  0
 18 19  2  0
 18 20  1  0
 20 21  2  0
 21 22  1  0
 22 23  2  0
 23 24  1  0
 24 25  2  0
 23 26  1  0
 26 27  1  0
 27 28  1  0
 28 29  1  0
 29 30  1  0
 30 31  1  0
 31 32  1  0
 32 33  2  0
 33 34  1  0
 34 35  2  0
 35 36  1  0
 36 37  2  0
 34 38  1  0
 33 39  1  0
 21 40  1  0
  2 41  1  0
 41 42  2  0
 41 43  1  0
 10  1  1  0
  9  4  1  0
 25 20  1  0
 37 32  1  0
M  END
$$$$
