
     RDKit          3D

 43 46  0  0  0  0  0  0  0  0999 V2000
   -4.6313   -1.7426   15.5361 C   0  0  0  0  0  0  0  0  0  0  0  0
   -3.2709   -1.3169   15.9976 C   0  0  0  0  0  0  0  0  0  0  0  0
   -2.3535   -1.6105   14.9521 O   0  0  0  0  0  0  0  0  0  0  0  0
   -2.2829   -2.9246   14.4912 C   0  0  0  0  0  0  0  0  0  0  0  0
   -1.0921   -3.3705   13.9899 C   0  0  0  0  0  0  0  0  0  0  0  0
   -1.0174   -4.6740   13.5324 C   0  0  0  0  0  0  0  0  0  0  0  0
   -2.1313   -5.4680   13.5966 C   0  0  0  0  0  0  0  0  0  0  0  0
   -3.3239   -4.9728   14.1136 C   0  0  0  0  0  0  0  0  0  0  0  0
   -3.4358   -3.6814   14.5769 C   0  0  0  0  0  0  0  0  0  0  0  0
   -4.6395   -3.1201   15.1142 N   0  0  0  0  0  0  0  0  0  0  0  0
   -5.7917   -3.9651   15.1760 C   0  0  0  0  0  0  0  0  0  0  0  0
   -7.1424   -3.3955   14.9831 C   0  0  0  0  0  0  0  0  0  0  0  0
   -8.1928   -4.2552   14.3515 C   0  0  0  0  0  0  0  0  0  0  0  0
   -9.4066   -3.3783   14.1822 C   0  0  0  0  0  0  0  0  0  0  0  0
   -9.3291   -2.1705   13.8592 O   0  0  0  0  0  0  0  0  0  0  0  0
  -10.6353   -3.9806   14.4047 O   0  0  0  0  0  0  0  0  0  0  0  0
    0.1016   -2.5560   13.8974 N   0  0  0  0  0  0  0  0  0  0  0  0
    0.9604   -2.6806   12.8082 C   0  0  0  0  0  0  0  0  0  0  0  0
    0.6845   -3.5814   11.9459 O   0  0  0  0  0  0  0  0  0  0  0  0
    2.1246   -1.8722   12.5919 C   0  0  0  0  0  0  0  0  0  0  0  0
    2.6451   -1.5893   11.3550 C   0  0  0  0  0  0  0  0  0  0  0  0
    3.7688   -0.8006   11.1663 C   0  0  0  0  0  0  0  0  0  0  0  0
    4.3826   -0.2830   12.2785 C   0  0  0  0  0  0  0  0  0  0  0  0
    3.8942   -0.5403   13.5494 C   0  0  0  0  0  0  0  0  0  0  0  0
    2.7834   -1.3227   13.6972 C   0  0  0  0  0  0  0  0  0  0  0  0
    5.4968    0.4987   12.1104 O   0  0  0  0  0  0  0  0  0  0  0  0
    5.9560    0.9411   10.8466 C   0  0  0  0  0  0  0  0  0  0  0  0
    7.2754    1.7082   11.0133 C   0  0  0  0  0  0  0  0  0  0  0  0
    8.2361    1.0850   10.0394 C   0  0  0  0  0  0  0  0  0  0  0  0
    9.5248    0.6621   10.6939 C   0  0  0  0  0  0  0  0  0  0  0  0
    9.8773   -0.6549   10.3796 O   0  0  0  0  0  0  0  0  0  0  0  0
   10.9179   -0.9144    9.5045 C   0  0  0  0  0  0  0  0  0  0  0  0
   11.3185   -2.2063    9.2431 C   0  0  0  0  0  0  0  0  0  0  0  0
   12.3621   -2.4989    8.3679 C   0  0  0  0  0  0  0  0  0  0  0  0
   12.9872   -1.4333    7.7648 C   0  0  0  0  0  0  0  0  0  0  0  0
   12.6096   -0.1513    8.0068 C   0  0  0  0  0  0  0  0  0  0  0  0
   11.5651    0.1333    8.8836 C   0  0  0  0  0  0  0  0  0  0  0  0
   12.7424   -3.7664    8.1226 F   0  0  0  0  0  0  0  0  0  0  0  0
   10.6565   -3.2086    9.8738 F   0  0  0  0  0  0  0  0  0  0  0  0
    2.0889   -2.0806   10.2294 F   0  0  0  0  0  0  0  0  0  0  0  0
   -2.8838   -1.8687   17.2925 C   0  0  0  0  0  0  0  0  0  0  0  0
   -1.6980   -2.0550   17.6468 O   0  0  0  0  0  0  0  0  0  0  0  0
   -3.8570   -2.2177   18.2092 O   0  0  0  0  0  0  0  0  0  0  0  0
  1  2  1  0
  2  3  1  0
  3  4  1  0
  4  5  2  0
  5  6  1  0
  6  7  2  0
  7  8  1  0
  8  9  2  0
  9 10  1  0
 10 11  1  0
 11 12  1  0
 12 13  1  0
 13 14  1  0
 14 15  2  0
 14 16  1  0
  5 17  1  0
 17 18  1  0
 18 19  2  0
 18 20  1  0
 20 21  2  0
 21 22  1  0
 22 23  2  0
 23 24  1  0
 24 25  2  0
 23 26  1  0
 26 27  1  0
 27 28  1  0
 28 29  1  0
 29 30  1  0
 30 31  1  0
 31 32  1  0
 32 33  2  0
 33 34  1  0
 34 35  2  0
 35 36  1  0
 36 37  2  0
 34 38  1  0
 33 39  1  0
 21 40  1  0
  2 41  1  0
 41 42  2  0
 41 43  1  0
 10  1  1  0
  9  4  1  0
 25 20  1  0
 37 32  1  0
M  END
$$$$
