
     RDKit          3D

 43 46  0  0  0  0  0  0  0  0999 V2000
   -3.1578    1.6512   18.9637 C   0  0  0  0  0  0  0  0  0  0  0  0
   -2.0042    0.6971   19.0239 C   0  0  0  0  0  0  0  0  0  0  0  0
   -1.7279    0.2759   17.6946 O   0  0  0  0  0  0  0  0  0  0  0  0
   -2.7609   -0.3105   16.9642 C   0  0  0  0  0  0  0  0  0  0  0  0
   -2.4347   -1.2328   16.0097 C   0  0  0  0  0  0  0  0  0  0  0  0
   -3.4567   -1.8178   15.2834 C   0  0  0  0  0  0  0  0  0  0  0  0
   -4.7515   -1.4555   15.5433 C   0  0  0  0  0  0  0  0  0  0  0  0
   -5.0384   -0.5111   16.5236 C   0  0  0  0  0  0  0  0  0  0  0  0
   -4.0480    0.0924   17.2650 C   0  0  0  0  0  0  0  0  0  0  0  0
   -4.2874    1.0728   18.2818 N   0  0  0  0  0  0  0  0  0  0  0  0
   -5.6460    1.4365   18.5413 C   0  0  0  0  0  0  0  0  0  0  0  0
   -6.0355    2.8615   18.6020 C   0  0  0  0  0  0  0  0  0  0  0  0
   -5.0119    3.8940   18.2446 C   0  0  0  0  0  0  0  0  0  0  0  0
   -5.1531    4.9951   19.2638 C   0  0  0  0  0  0  0  0  0  0  0  0
   -4.7099    4.8973   20.4314 O   0  0  0  0  0  0  0  0  0  0  0  0
   -5.8083    6.1418   18.8424 O   0  0  0  0  0  0  0  0  0  0  0  0
   -1.0772   -1.6315   15.7015 N   0  0  0  0  0  0  0  0  0  0  0  0
   -0.8078   -2.4228   14.5876 C   0  0  0  0  0  0  0  0  0  0  0  0
   -1.8086   -2.8721   13.9336 O   0  0  0  0  0  0  0  0  0  0  0  0
    0.5071   -2.7645   14.1296 C   0  0  0  0  0  0  0  0  0  0  0  0
    1.6115   -2.8267   14.9403 C   0  0  0  0  0  0  0  0  0  0  0  0
    2.8739   -3.1646   14.4792 C   0  0  0  0  0  0  0  0  0  0  0  0
    3.0138   -3.4488   13.1446 C   0  0  0  0  0  0  0  0  0  0  0  0
    1.9277   -3.3996   12.2855 C   0  0  0  0  0  0  0  0  0  0  0  0
    0.6973   -3.0624   12.7758 C   0  0  0  0  0  0  0  0  0  0  0  0
    4.2564   -3.7838   12.6707 O   0  0  0  0  0  0  0  0  0  0  0  0
    5.4381   -3.6887   13.4442 C   0  0  0  0  0  0  0  0  0  0  0  0
    6.5109   -2.9196   12.6603 C   0  0  0  0  0  0  0  0  0  0  0  0
    6.4205   -1.4957   13.1338 C   0  0  0  0  0  0  0  0  0  0  0  0
    6.8759   -0.5122   12.0882 C   0  0  0  0  0  0  0  0  0  0  0  0
    8.2296   -0.6612   11.7673 O   0  0  0  0  0  0  0  0  0  0  0  0
    8.6832   -0.3881   10.4883 C   0  0  0  0  0  0  0  0  0  0  0  0
   10.0253   -0.4511   10.1839 C   0  0  0  0  0  0  0  0  0  0  0  0
   10.5118   -0.1816    8.9067 C   0  0  0  0  0  0  0  0  0  0  0  0
    9.5879    0.1546    7.9457 C   0  0  0  0  0  0  0  0  0  0  0  0
    8.2599    0.2228    8.2223 C   0  0  0  0  0  0  0  0  0  0  0  0
    7.7810   -0.0479    9.5022 C   0  0  0  0  0  0  0  0  0  0  0  0
   11.8260   -0.2470    8.6244 F   0  0  0  0  0  0  0  0  0  0  0  0
   10.8801   -0.7894   11.1817 F   0  0  0  0  0  0  0  0  0  0  0  0
    1.5336   -2.5467   16.2569 F   0  0  0  0  0  0  0  0  0  0  0  0
   -2.1934   -0.4044   19.9630 C   0  0  0  0  0  0  0  0  0  0  0  0
   -3.0738   -0.4215   20.8525 O   0  0  0  0  0  0  0  0  0  0  0  0
   -1.3708   -1.5126   19.8966 O   0  0  0  0  0  0  0  0  0  0  0  0
  1  2  1  0
  2  3  1  0
  3  4  1  0
  4  5  2  0
  5  6  1  0
  6  7  2  0
  7  8  1  0
  8  9  2  0
  9 10  1  0
 10 11  1  0
 11 12  1  0
 12 13  1  0
 13 14  1  0
 14 15  2  0
 14 16  1  0
  5 17  1  0
 17 18  1  0
 18 19  2  0
 18 20  1  0
 20 21  2  0
 21 22  1  0
 22 23  2  0
 23 24  1  0
 24 25  2  0
 23 26  1  0
 26 27  1  0
 27 28  1  0
 28 29  1  0
 29 30  1  0
 30 31  1  0
 31 32  1  0
 32 33  2  0
 33 34  1  0
 34 35  2  0
 35 36  1  0
 36 37  2  0
 34 38  1  0
 33 39  1  0
 21 40  1  0
  2 41  1  0
 41 42  2  0
 41 43  1  0
 10  1  1  0
  9  4  1  0
 25 20  1  0
 37 32  1  0
M  END
$$$$
