
     RDKit          3D

 43 46  0  0  0  0  0  0  0  0999 V2000
    6.8247   -2.6807   15.0784 C   0  0  0  0  0  0  0  0  0  0  0  0
    5.8441   -1.5486   15.1154 C   0  0  0  0  0  0  0  0  0  0  0  0
    4.9538   -1.7180   14.0202 O   0  0  0  0  0  0  0  0  0  0  0  0
    5.4983   -1.8019   12.7392 C   0  0  0  0  0  0  0  0  0  0  0  0
    4.7458   -1.3604   11.6871 C   0  0  0  0  0  0  0  0  0  0  0  0
    5.2826   -1.4408   10.4145 C   0  0  0  0  0  0  0  0  0  0  0  0
    6.5409   -1.9565   10.2530 C   0  0  0  0  0  0  0  0  0  0  0  0
    7.2717   -2.3955   11.3522 C   0  0  0  0  0  0  0  0  0  0  0  0
    6.7699   -2.3319   12.6324 C   0  0  0  0  0  0  0  0  0  0  0  0
    7.4772   -2.7735   13.7974 N   0  0  0  0  0  0  0  0  0  0  0  0
    8.7910   -3.3065   13.6096 C   0  0  0  0  0  0  0  0  0  0  0  0
    9.0138   -4.7675   13.6533 C   0  0  0  0  0  0  0  0  0  0  0  0
    9.9677   -5.3109   14.6712 C   0  0  0  0  0  0  0  0  0  0  0  0
    9.7307   -6.7984   14.7162 C   0  0  0  0  0  0  0  0  0  0  0  0
    9.7847   -7.4604   15.7782 O   0  0  0  0  0  0  0  0  0  0  0  0
    9.4454   -7.4118   13.5061 O   0  0  0  0  0  0  0  0  0  0  0  0
    3.4091   -0.8197   11.8201 N   0  0  0  0  0  0  0  0  0  0  0  0
    2.7687   -0.2396   10.7279 C   0  0  0  0  0  0  0  0  0  0  0  0
    3.5068    0.1984    9.7820 O   0  0  0  0  0  0  0  0  0  0  0  0
    1.3478   -0.1017   10.5953 C   0  0  0  0  0  0  0  0  0  0  0  0
    0.4994    0.1557   11.6415 C   0  0  0  0  0  0  0  0  0  0  0  0
   -0.8716    0.2911   11.4919 C   0  0  0  0  0  0  0  0  0  0  0  0
   -1.3947    0.1590   10.2308 C   0  0  0  0  0  0  0  0  0  0  0  0
   -0.5783   -0.1012    9.1418 C   0  0  0  0  0  0  0  0  0  0  0  0
    0.7698   -0.2284    9.3273 C   0  0  0  0  0  0  0  0  0  0  0  0
   -2.7498    0.2886   10.0644 O   0  0  0  0  0  0  0  0  0  0  0  0
   -3.6837    0.1283   11.1160 C   0  0  0  0  0  0  0  0  0  0  0  0
   -5.1119    0.2185   10.5599 C   0  0  0  0  0  0  0  0  0  0  0  0
   -6.0227    0.0166   11.7387 C   0  0  0  0  0  0  0  0  0  0  0  0
   -6.8897   -1.2061   11.5926 C   0  0  0  0  0  0  0  0  0  0  0  0
   -7.4730   -1.5960   12.8031 O   0  0  0  0  0  0  0  0  0  0  0  0
   -8.3425   -2.6720   12.8502 C   0  0  0  0  0  0  0  0  0  0  0  0
   -9.2683   -2.7911   13.8634 C   0  0  0  0  0  0  0  0  0  0  0  0
  -10.1561   -3.8621   13.9377 C   0  0  0  0  0  0  0  0  0  0  0  0
  -10.0728   -4.8108   12.9462 C   0  0  0  0  0  0  0  0  0  0  0  0
   -9.1686   -4.7144   11.9374 C   0  0  0  0  0  0  0  0  0  0  0  0
   -8.2838   -3.6405   11.8700 C   0  0  0  0  0  0  0  0  0  0  0  0
  -11.0550   -3.9649   14.9340 F   0  0  0  0  0  0  0  0  0  0  0  0
   -9.2939   -1.8176   14.8079 F   0  0  0  0  0  0  0  0  0  0  0  0
    0.9579    0.2839   12.9030 F   0  0  0  0  0  0  0  0  0  0  0  0
    6.4640   -0.2280   15.1711 C   0  0  0  0  0  0  0  0  0  0  0  0
    5.9929    0.7895   14.6151 O   0  0  0  0  0  0  0  0  0  0  0  0
    7.6423   -0.0513   15.8709 O   0  0  0  0  0  0  0  0  0  0  0  0
  1  2  1  0
  2  3  1  0
  3  4  1  0
  4  5  2  0
  5  6  1  0
  6  7  2  0
  7  8  1  0
  8  9  2  0
  9 10  1  0
 10 11  1  0
 11 12  1  0
 12 13  1  0
 13 14  1  0
 14 15  2  0
 14 16  1  0
  5 17  1  0
 17 18  1  0
 18 19  2  0
 18 20  1  0
 20 21  2  0
 21 22  1  0
 22 23  2  0
 23 24  1  0
 24 25  2  0
 23 26  1  0
 26 27  1  0
 27 28  1  0
 28 29  1  0
 29 30  1  0
 30 31  1  0
 31 32  1  0
 32 33  2  0
 33 34  1  0
 34 35  2  0
 35 36  1  0
 36 37  2  0
 34 38  1  0
 33 39  1  0
 21 40  1  0
  2 41  1  0
 41 42  2  0
 41 43  1  0
 10  1  1  0
  9  4  1  0
 25 20  1  0
 37 32  1  0
M  END
$$$$
