
     RDKit          3D

 43 46  0  0  0  0  0  0  0  0999 V2000
    4.6481    3.0944   12.4526 C   0  0  0  0  0  0  0  0  0  0  0  0
    4.8562    1.8898   11.5863 C   0  0  0  0  0  0  0  0  0  0  0  0
    3.8738    0.9281   11.9481 O   0  0  0  0  0  0  0  0  0  0  0  0
    3.8138    0.5209   13.2803 C   0  0  0  0  0  0  0  0  0  0  0  0
    3.3731   -0.7445   13.5501 C   0  0  0  0  0  0  0  0  0  0  0  0
    3.3131   -1.1529   14.8706 C   0  0  0  0  0  0  0  0  0  0  0  0
    3.6943   -0.2817   15.8560 C   0  0  0  0  0  0  0  0  0  0  0  0
    4.1357    0.9982   15.5364 C   0  0  0  0  0  0  0  0  0  0  0  0
    4.2078    1.4394   14.2346 C   0  0  0  0  0  0  0  0  0  0  0  0
    4.6501    2.7470   13.8508 N   0  0  0  0  0  0  0  0  0  0  0  0
    5.0470    3.6420   14.8932 C   0  0  0  0  0  0  0  0  0  0  0  0
    4.1142    4.6835   15.3740 C   0  0  0  0  0  0  0  0  0  0  0  0
    4.2988    5.2180   16.7602 C   0  0  0  0  0  0  0  0  0  0  0  0
    3.7512    6.6219   16.7449 C   0  0  0  0  0  0  0  0  0  0  0  0
    2.5254    6.8708   16.8134 O   0  0  0  0  0  0  0  0  0  0  0  0
    4.6832    7.6437   16.6495 O   0  0  0  0  0  0  0  0  0  0  0  0
    2.9526   -1.6874   12.5348 N   0  0  0  0  0  0  0  0  0  0  0  0
    2.5917   -2.9869   12.8822 C   0  0  0  0  0  0  0  0  0  0  0  0
    3.4177   -3.6530   13.5930 O   0  0  0  0  0  0  0  0  0  0  0  0
    1.3651   -3.6221   12.4982 C   0  0  0  0  0  0  0  0  0  0  0  0
    1.1411   -4.9728   12.5777 C   0  0  0  0  0  0  0  0  0  0  0  0
   -0.0544   -5.5674   12.2066 C   0  0  0  0  0  0  0  0  0  0  0  0
   -1.0556   -4.7555   11.7379 C   0  0  0  0  0  0  0  0  0  0  0  0
   -0.8773   -3.3849   11.6392 C   0  0  0  0  0  0  0  0  0  0  0  0
    0.3155   -2.8333   12.0146 C   0  0  0  0  0  0  0  0  0  0  0  0
   -2.2450   -5.3272   11.3648 O   0  0  0  0  0  0  0  0  0  0  0  0
   -2.4092   -6.7167   11.1501 C   0  0  0  0  0  0  0  0  0  0  0  0
   -3.7959   -6.9887   10.5499 C   0  0  0  0  0  0  0  0  0  0  0  0
   -4.4404   -8.0026   11.4535 C   0  0  0  0  0  0  0  0  0  0  0  0
   -4.9193   -9.2181   10.7045 C   0  0  0  0  0  0  0  0  0  0  0  0
   -3.9345  -10.2069   10.6040 O   0  0  0  0  0  0  0  0  0  0  0  0
   -4.1742  -11.3679    9.8895 C   0  0  0  0  0  0  0  0  0  0  0  0
   -3.6230  -12.5680   10.2818 C   0  0  0  0  0  0  0  0  0  0  0  0
   -3.8457  -13.7526    9.5833 C   0  0  0  0  0  0  0  0  0  0  0  0
   -4.6492  -13.6783    8.4702 C   0  0  0  0  0  0  0  0  0  0  0  0
   -5.2036  -12.5067    8.0645 C   0  0  0  0  0  0  0  0  0  0  0  0
   -4.9760  -11.3261    8.7681 C   0  0  0  0  0  0  0  0  0  0  0  0
   -3.3001  -14.9175    9.9788 F   0  0  0  0  0  0  0  0  0  0  0  0
   -2.8404  -12.5669   11.3900 F   0  0  0  0  0  0  0  0  0  0  0  0
    2.0935   -5.8182   13.0203 F   0  0  0  0  0  0  0  0  0  0  0  0
    6.2212    1.3729   11.6065 C   0  0  0  0  0  0  0  0  0  0  0  0
    7.2131    2.0326   11.9905 O   0  0  0  0  0  0  0  0  0  0  0  0
    6.4731    0.0816   11.1842 O   0  0  0  0  0  0  0  0  0  0  0  0
  1  2  1  0
  2  3  1  0
  3  4  1  0
  4  5  2  0
  5  6  1  0
  6  7  2  0
  7  8  1  0
  8  9  2  0
  9 10  1  0
 10 11  1  0
 11 12  1  0
 12 13  1  0
 13 14  1  0
 14 15  2  0
 14 16  1  0
  5 17  1  0
 17 18  1  0
 18 19  2  0
 18 20  1  0
 20 21  2  0
 21 22  1  0
 22 23  2  0
 23 24  1  0
 24 25  2  0
 23 26  1  0
 26 27  1  0
 27 28  1  0
 28 29  1  0
 29 30  1  0
 30 31  1  0
 31 32  1  0
 32 33  2  0
 33 34  1  0
 34 35  2  0
 35 36  1  0
 36 37  2  0
 34 38  1  0
 33 39  1  0
 21 40  1  0
  2 41  1  0
 41 42  2  0
 41 43  1  0
 10  1  1  0
  9  4  1  0
 25 20  1  0
 37 32  1  0
M  END
$$$$
