
     RDKit          3D

 43 46  0  0  0  0  0  0  0  0999 V2000
    1.8023   -5.2612   15.5365 C   0  0  0  0  0  0  0  0  0  0  0  0
    1.4674   -4.0338   14.7452 C   0  0  0  0  0  0  0  0  0  0  0  0
    2.6257   -3.6739   14.0037 O   0  0  0  0  0  0  0  0  0  0  0  0
    3.8099   -3.4497   14.7048 C   0  0  0  0  0  0  0  0  0  0  0  0
    4.7103   -2.5623   14.1854 C   0  0  0  0  0  0  0  0  0  0  0  0
    5.8862   -2.3361   14.8784 C   0  0  0  0  0  0  0  0  0  0  0  0
    6.1069   -3.0044   16.0532 C   0  0  0  0  0  0  0  0  0  0  0  0
    5.1633   -3.9003   16.5451 C   0  0  0  0  0  0  0  0  0  0  0  0
    3.9831   -4.1512   15.8827 C   0  0  0  0  0  0  0  0  0  0  0  0
    2.9807   -5.0660   16.3420 N   0  0  0  0  0  0  0  0  0  0  0  0
    3.2272   -5.7525   17.5721 C   0  0  0  0  0  0  0  0  0  0  0  0
    4.3343   -6.7275   17.6702 C   0  0  0  0  0  0  0  0  0  0  0  0
    4.2665   -7.9667   16.8328 C   0  0  0  0  0  0  0  0  0  0  0  0
    5.5440   -8.7214   17.0962 C   0  0  0  0  0  0  0  0  0  0  0  0
    6.3942   -8.3412   17.9339 O   0  0  0  0  0  0  0  0  0  0  0  0
    5.7390   -9.8766   16.3548 O   0  0  0  0  0  0  0  0  0  0  0  0
    4.5145   -1.8468   12.9418 N   0  0  0  0  0  0  0  0  0  0  0  0
    5.5351   -1.0643   12.4075 C   0  0  0  0  0  0  0  0  0  0  0  0
    6.6855   -1.1496   12.9558 O   0  0  0  0  0  0  0  0  0  0  0  0
    5.3822   -0.1761   11.2924 C   0  0  0  0  0  0  0  0  0  0  0  0
    4.2171   -0.0234   10.5853 C   0  0  0  0  0  0  0  0  0  0  0  0
    4.0878    0.8451    9.5132 C   0  0  0  0  0  0  0  0  0  0  0  0
    5.1856    1.5830    9.1502 C   0  0  0  0  0  0  0  0  0  0  0  0
    6.3850    1.4638    9.8339 C   0  0  0  0  0  0  0  0  0  0  0  0
    6.4756    0.5970   10.8866 C   0  0  0  0  0  0  0  0  0  0  0  0
    5.0760    2.4465    8.0904 O   0  0  0  0  0  0  0  0  0  0  0  0
    4.1708    2.2557    7.0190 C   0  0  0  0  0  0  0  0  0  0  0  0
    4.2723    3.4324    6.0381 C   0  0  0  0  0  0  0  0  0  0  0  0
    5.7428    3.6805    5.8486 C   0  0  0  0  0  0  0  0  0  0  0  0
    6.2257    3.2605    4.4854 C   0  0  0  0  0  0  0  0  0  0  0  0
    7.4316    3.8759    4.1321 O   0  0  0  0  0  0  0  0  0  0  0  0
    7.9684    3.6973    2.8688 C   0  0  0  0  0  0  0  0  0  0  0  0
    9.1503    4.3064    2.5084 C   0  0  0  0  0  0  0  0  0  0  0  0
    9.7148    4.1459    1.2450 C   0  0  0  0  0  0  0  0  0  0  0  0
    9.0379    3.3439    0.3570 C   0  0  0  0  0  0  0  0  0  0  0  0
    7.8714    2.7330    0.6898 C   0  0  0  0  0  0  0  0  0  0  0  0
    7.3129    2.8985    1.9552 C   0  0  0  0  0  0  0  0  0  0  0  0
   10.8703    4.7477    0.9074 F   0  0  0  0  0  0  0  0  0  0  0  0
    9.7639    5.0839    3.4355 F   0  0  0  0  0  0  0  0  0  0  0  0
    3.1113   -0.7313   10.8916 F   0  0  0  0  0  0  0  0  0  0  0  0
    0.9185   -2.9432   15.5454 C   0  0  0  0  0  0  0  0  0  0  0  0
    1.4924   -1.8442   15.7168 O   0  0  0  0  0  0  0  0  0  0  0  0
   -0.3066   -3.0957   16.1660 O   0  0  0  0  0  0  0  0  0  0  0  0
  1  2  1  0
  2  3  1  0
  3  4  1  0
  4  5  2  0
  5  6  1  0
  6  7  2  0
  7  8  1  0
  8  9  2  0
  9 10  1  0
 10 11  1  0
 11 12  1  0
 12 13  1  0
 13 14  1  0
 14 15  2  0
 14 16  1  0
  5 17  1  0
 17 18  1  0
 18 19  2  0
 18 20  1  0
 20 21  2  0
 21 22  1  0
 22 23  2  0
 23 24  1  0
 24 25  2  0
 23 26  1  0
 26 27  1  0
 27 28  1  0
 28 29  1  0
 29 30  1  0
 30 31  1  0
 31 32  1  0
 32 33  2  0
 33 34  1  0
 34 35  2  0
 35 36  1  0
 36 37  2  0
 34 38  1  0
 33 39  1  0
 21 40  1  0
  2 41  1  0
 41 42  2  0
 41 43  1  0
 10  1  1  0
  9  4  1  0
 25 20  1  0
 37 32  1  0
M  END
$$$$
