
     RDKit          3D

 43 46  0  0  0  0  0  0  0  0999 V2000
    1.5262    4.9870  -13.0767 C   0  0  0  0  0  0  0  0  0  0  0  0
    0.6936    5.6177  -12.0027 C   0  0  0  0  0  0  0  0  0  0  0  0
    0.6890    4.7329  -10.8900 O   0  0  0  0  0  0  0  0  0  0  0  0
    0.2485    3.4257  -11.0934 C   0  0  0  0  0  0  0  0  0  0  0  0
   -0.3366    2.7706  -10.0461 C   0  0  0  0  0  0  0  0  0  0  0  0
   -0.7761    1.4738  -10.2439 C   0  0  0  0  0  0  0  0  0  0  0  0
   -0.6111    0.8940  -11.4735 C   0  0  0  0  0  0  0  0  0  0  0  0
   -0.0090    1.5972  -12.5118 C   0  0  0  0  0  0  0  0  0  0  0  0
    0.4412    2.8881  -12.3517 C   0  0  0  0  0  0  0  0  0  0  0  0
    1.0715    3.6551  -13.3847 N   0  0  0  0  0  0  0  0  0  0  0  0
    1.2326    3.0342  -14.6629 C   0  0  0  0  0  0  0  0  0  0  0  0
    2.0340    3.6955  -15.7148 C   0  0  0  0  0  0  0  0  0  0  0  0
    3.5227    3.5411  -15.6766 C   0  0  0  0  0  0  0  0  0  0  0  0
    4.0661    4.4473  -16.7512 C   0  0  0  0  0  0  0  0  0  0  0  0
    3.4190    4.7356  -17.7843 O   0  0  0  0  0  0  0  0  0  0  0  0
    5.3383    4.9561  -16.5402 O   0  0  0  0  0  0  0  0  0  0  0  0
   -0.5174    3.3487   -8.7308 N   0  0  0  0  0  0  0  0  0  0  0  0
   -0.7959    2.5374   -7.6337 C   0  0  0  0  0  0  0  0  0  0  0  0
   -1.4615    1.4691   -7.8503 O   0  0  0  0  0  0  0  0  0  0  0  0
   -0.3893    2.8189   -6.2880 C   0  0  0  0  0  0  0  0  0  0  0  0
   -0.7624    2.0721   -5.2000 C   0  0  0  0  0  0  0  0  0  0  0  0
   -0.3539    2.3575   -3.9068 C   0  0  0  0  0  0  0  0  0  0  0  0
    0.4635    3.4427   -3.7178 C   0  0  0  0  0  0  0  0  0  0  0  0
    0.8677    4.2278   -4.7856 C   0  0  0  0  0  0  0  0  0  0  0  0
    0.4450    3.9161   -6.0474 C   0  0  0  0  0  0  0  0  0  0  0  0
    0.8763    3.7406   -2.4444 O   0  0  0  0  0  0  0  0  0  0  0  0
    1.5170    4.9538   -2.0957 C   0  0  0  0  0  0  0  0  0  0  0  0
    1.7471    5.0017   -0.5785 C   0  0  0  0  0  0  0  0  0  0  0  0
    2.8450    4.0132   -0.3006 C   0  0  0  0  0  0  0  0  0  0  0  0
    2.8882    3.5933    1.1450 C   0  0  0  0  0  0  0  0  0  0  0  0
    3.9782    2.7632    1.4285 O   0  0  0  0  0  0  0  0  0  0  0  0
    4.1719    2.2692    2.7070 C   0  0  0  0  0  0  0  0  0  0  0  0
    5.1880    1.3788    2.9762 C   0  0  0  0  0  0  0  0  0  0  0  0
    5.4076    0.8642    4.2521 C   0  0  0  0  0  0  0  0  0  0  0  0
    4.5592    1.2851    5.2486 C   0  0  0  0  0  0  0  0  0  0  0  0
    3.5508    2.1623    5.0070 C   0  0  0  0  0  0  0  0  0  0  0  0
    3.3373    2.6723    3.7283 C   0  0  0  0  0  0  0  0  0  0  0  0
    6.4046   -0.0052    4.4998 F   0  0  0  0  0  0  0  0  0  0  0  0
    5.9869    1.0073    1.9446 F   0  0  0  0  0  0  0  0  0  0  0  0
   -1.5729    1.0021   -5.3265 F   0  0  0  0  0  0  0  0  0  0  0  0
   -0.6399    6.0167  -12.4427 C   0  0  0  0  0  0  0  0  0  0  0  0
   -0.9004    6.4352  -13.5932 O   0  0  0  0  0  0  0  0  0  0  0  0
   -1.7042    5.9411  -11.5648 O   0  0  0  0  0  0  0  0  0  0  0  0
  1  2  1  0
  2  3  1  0
  3  4  1  0
  4  5  2  0
  5  6  1  0
  6  7  2  0
  7  8  1  0
  8  9  2  0
  9 10  1  0
 10 11  1  0
 11 12  1  0
 12 13  1  0
 13 14  1  0
 14 15  2  0
 14 16  1  0
  5 17  1  0
 17 18  1  0
 18 19  2  0
 18 20  1  0
 20 21  2  0
 21 22  1  0
 22 23  2  0
 23 24  1  0
 24 25  2  0
 23 26  1  0
 26 27  1  0
 27 28  1  0
 28 29  1  0
 29 30  1  0
 30 31  1  0
 31 32  1  0
 32 33  2  0
 33 34  1  0
 34 35  2  0
 35 36  1  0
 36 37  2  0
 34 38  1  0
 33 39  1  0
 21 40  1  0
  2 41  1  0
 41 42  2  0
 41 43  1  0
 10  1  1  0
  9  4  1  0
 25 20  1  0
 37 32  1  0
M  END
$$$$
