
     RDKit          3D

 43 46  0  0  0  0  0  0  0  0999 V2000
   -0.7267    2.6747   21.4755 C   0  0  0  0  0  0  0  0  0  0  0  0
   -0.3435    1.2857   21.0650 C   0  0  0  0  0  0  0  0  0  0  0  0
   -0.3821    1.2335   19.6449 O   0  0  0  0  0  0  0  0  0  0  0  0
   -1.5731    1.5800   19.0080 C   0  0  0  0  0  0  0  0  0  0  0  0
   -1.8578    0.9934   17.8067 C   0  0  0  0  0  0  0  0  0  0  0  0
   -3.0391    1.3335   17.1718 C   0  0  0  0  0  0  0  0  0  0  0  0
   -3.8773    2.2402   17.7640 C   0  0  0  0  0  0  0  0  0  0  0  0
   -3.5475    2.8140   18.9875 C   0  0  0  0  0  0  0  0  0  0  0  0
   -2.3810    2.5007   19.6476 C   0  0  0  0  0  0  0  0  0  0  0  0
   -1.9911    3.0647   20.9055 N   0  0  0  0  0  0  0  0  0  0  0  0
   -2.8803    4.0075   21.5102 C   0  0  0  0  0  0  0  0  0  0  0  0
   -4.2227    3.5808   21.9595 C   0  0  0  0  0  0  0  0  0  0  0  0
   -4.3187    2.6510   23.1290 C   0  0  0  0  0  0  0  0  0  0  0  0
   -5.7726    2.2722   23.2456 C   0  0  0  0  0  0  0  0  0  0  0  0
   -6.1635    1.0821   23.2506 O   0  0  0  0  0  0  0  0  0  0  0  0
   -6.6741    3.3204   23.3484 O   0  0  0  0  0  0  0  0  0  0  0  0
   -0.9904    0.0397   17.1473 N   0  0  0  0  0  0  0  0  0  0  0  0
   -0.6018    0.2339   15.8241 C   0  0  0  0  0  0  0  0  0  0  0  0
   -1.1168    1.2236   15.2026 O   0  0  0  0  0  0  0  0  0  0  0  0
    0.3300   -0.5963   15.1184 C   0  0  0  0  0  0  0  0  0  0  0  0
    0.9633   -0.2277   13.9591 C   0  0  0  0  0  0  0  0  0  0  0  0
    1.8657   -1.0428   13.2945 C   0  0  0  0  0  0  0  0  0  0  0  0
    2.1307   -2.2769   13.8316 C   0  0  0  0  0  0  0  0  0  0  0  0
    1.5159   -2.6944   15.0011 C   0  0  0  0  0  0  0  0  0  0  0  0
    0.6312   -1.8635   15.6295 C   0  0  0  0  0  0  0  0  0  0  0  0
    3.0202   -3.0973   13.1863 O   0  0  0  0  0  0  0  0  0  0  0  0
    4.1522   -2.6206   12.4827 C   0  0  0  0  0  0  0  0  0  0  0  0
    4.9499   -3.8053   11.9195 C   0  0  0  0  0  0  0  0  0  0  0  0
    6.3974   -3.4641   12.1387 C   0  0  0  0  0  0  0  0  0  0  0  0
    7.1754   -3.4043   10.8507 C   0  0  0  0  0  0  0  0  0  0  0  0
    7.7443   -2.1457   10.6273 O   0  0  0  0  0  0  0  0  0  0  0  0
    8.4565   -1.8918    9.4678 C   0  0  0  0  0  0  0  0  0  0  0  0
    9.3077   -0.8121    9.3812 C   0  0  0  0  0  0  0  0  0  0  0  0
   10.0373   -0.5308    8.2282 C   0  0  0  0  0  0  0  0  0  0  0  0
    9.8738   -1.3845    7.1631 C   0  0  0  0  0  0  0  0  0  0  0  0
    9.0405   -2.4553    7.2254 C   0  0  0  0  0  0  0  0  0  0  0  0
    8.3141   -2.7300    8.3819 C   0  0  0  0  0  0  0  0  0  0  0  0
   10.8651    0.5281    8.1584 F   0  0  0  0  0  0  0  0  0  0  0  0
    9.4198   -0.0120   10.4710 F   0  0  0  0  0  0  0  0  0  0  0  0
    0.7320    0.9685   13.3817 F   0  0  0  0  0  0  0  0  0  0  0  0
   -1.1258    0.2378   21.7139 C   0  0  0  0  0  0  0  0  0  0  0  0
   -1.3465   -0.8851   21.2073 O   0  0  0  0  0  0  0  0  0  0  0  0
   -1.6712    0.4619   22.9635 O   0  0  0  0  0  0  0  0  0  0  0  0
  1  2  1  0
  2  3  1  0
  3  4  1  0
  4  5  2  0
  5  6  1  0
  6  7  2  0
  7  8  1  0
  8  9  2  0
  9 10  1  0
 10 11  1  0
 11 12  1  0
 12 13  1  0
 13 14  1  0
 14 15  2  0
 14 16  1  0
  5 17  1  0
 17 18  1  0
 18 19  2  0
 18 20  1  0
 20 21  2  0
 21 22  1  0
 22 23  2  0
 23 24  1  0
 24 25  2  0
 23 26  1  0
 26 27  1  0
 27 28  1  0
 28 29  1  0
 29 30  1  0
 30 31  1  0
 31 32  1  0
 32 33  2  0
 33 34  1  0
 34 35  2  0
 35 36  1  0
 36 37  2  0
 34 38  1  0
 33 39  1  0
 21 40  1  0
  2 41  1  0
 41 42  2  0
 41 43  1  0
 10  1  1  0
  9  4  1  0
 25 20  1  0
 37 32  1  0
M  END
$$$$
