
     RDKit          3D

 43 46  0  0  0  0  0  0  0  0999 V2000
   -6.5752    0.3397   11.5495 C   0  0  0  0  0  0  0  0  0  0  0  0
   -5.4933    0.8734   12.4379 C   0  0  0  0  0  0  0  0  0  0  0  0
   -4.5661   -0.1804   12.6630 O   0  0  0  0  0  0  0  0  0  0  0  0
   -5.0466   -1.3726   13.2034 C   0  0  0  0  0  0  0  0  0  0  0  0
   -4.1996   -2.1217   13.9713 C   0  0  0  0  0  0  0  0  0  0  0  0
   -4.6728   -3.3048   14.5103 C   0  0  0  0  0  0  0  0  0  0  0  0
   -5.9645   -3.6830   14.2578 C   0  0  0  0  0  0  0  0  0  0  0  0
   -6.7921   -2.8904   13.4693 C   0  0  0  0  0  0  0  0  0  0  0  0
   -6.3559   -1.7080   12.9158 C   0  0  0  0  0  0  0  0  0  0  0  0
   -7.1640   -0.8572   12.0938 N   0  0  0  0  0  0  0  0  0  0  0  0
   -8.5111   -1.2670   11.8434 C   0  0  0  0  0  0  0  0  0  0  0  0
   -9.4988   -0.2970   11.3244 C   0  0  0  0  0  0  0  0  0  0  0  0
   -9.7277   -0.2376    9.8460 C   0  0  0  0  0  0  0  0  0  0  0  0
  -10.5427    1.0052    9.5972 C   0  0  0  0  0  0  0  0  0  0  0  0
  -10.0496    2.1562    9.6329 O   0  0  0  0  0  0  0  0  0  0  0  0
  -11.8879    0.8128    9.3225 O   0  0  0  0  0  0  0  0  0  0  0  0
   -2.8261   -1.7577   14.2499 N   0  0  0  0  0  0  0  0  0  0  0  0
   -1.8563   -2.7408   14.4301 C   0  0  0  0  0  0  0  0  0  0  0  0
   -2.1995   -3.7901   15.0723 O   0  0  0  0  0  0  0  0  0  0  0  0
   -0.5091   -2.6547   13.9472 C   0  0  0  0  0  0  0  0  0  0  0  0
    0.5943   -3.0108   14.6795 C   0  0  0  0  0  0  0  0  0  0  0  0
    1.8889   -2.9254   14.1925 C   0  0  0  0  0  0  0  0  0  0  0  0
    2.0632   -2.4603   12.9139 C   0  0  0  0  0  0  0  0  0  0  0  0
    0.9795   -2.0882   12.1346 C   0  0  0  0  0  0  0  0  0  0  0  0
   -0.2832   -2.1860   12.6483 C   0  0  0  0  0  0  0  0  0  0  0  0
    3.3378   -2.3679   12.4162 O   0  0  0  0  0  0  0  0  0  0  0  0
    4.4795   -2.8485   13.1012 C   0  0  0  0  0  0  0  0  0  0  0  0
    5.6691   -2.9292   12.1340 C   0  0  0  0  0  0  0  0  0  0  0  0
    6.8887   -3.0862   12.9988 C   0  0  0  0  0  0  0  0  0  0  0  0
    7.9662   -2.0903   12.6594 C   0  0  0  0  0  0  0  0  0  0  0  0
    8.0916   -1.8871   11.2808 O   0  0  0  0  0  0  0  0  0  0  0  0
    9.2224   -1.2825   10.7593 C   0  0  0  0  0  0  0  0  0  0  0  0
   10.2193   -0.8119   11.5854 C   0  0  0  0  0  0  0  0  0  0  0  0
   11.3682   -0.1990   11.0904 C   0  0  0  0  0  0  0  0  0  0  0  0
   11.4719   -0.0795    9.7247 C   0  0  0  0  0  0  0  0  0  0  0  0
   10.5021   -0.5360    8.8905 C   0  0  0  0  0  0  0  0  0  0  0  0
    9.3559   -1.1477    9.3932 C   0  0  0  0  0  0  0  0  0  0  0  0
   12.3337    0.2560   11.9101 F   0  0  0  0  0  0  0  0  0  0  0  0
   10.0500   -0.9637   12.9229 F   0  0  0  0  0  0  0  0  0  0  0  0
    0.4821   -3.4635   15.9446 F   0  0  0  0  0  0  0  0  0  0  0  0
   -5.9848    1.4965   13.6632 C   0  0  0  0  0  0  0  0  0  0  0  0
   -7.1718    1.4293   14.0541 O   0  0  0  0  0  0  0  0  0  0  0  0
   -5.1169    2.2114   14.4662 O   0  0  0  0  0  0  0  0  0  0  0  0
  1  2  1  0
  2  3  1  0
  3  4  1  0
  4  5  2  0
  5  6  1  0
  6  7  2  0
  7  8  1  0
  8  9  2  0
  9 10  1  0
 10 11  1  0
 11 12  1  0
 12 13  1  0
 13 14  1  0
 14 15  2  0
 14 16  1  0
  5 17  1  0
 17 18  1  0
 18 19  2  0
 18 20  1  0
 20 21  2  0
 21 22  1  0
 22 23  2  0
 23 24  1  0
 24 25  2  0
 23 26  1  0
 26 27  1  0
 27 28  1  0
 28 29  1  0
 29 30  1  0
 30 31  1  0
 31 32  1  0
 32 33  2  0
 33 34  1  0
 34 35  2  0
 35 36  1  0
 36 37  2  0
 34 38  1  0
 33 39  1  0
 21 40  1  0
  2 41  1  0
 41 42  2  0
 41 43  1  0
 10  1  1  0
  9  4  1  0
 25 20  1  0
 37 32  1  0
M  END
$$$$
