
     RDKit          3D

 30 33  0  0  0  0  0  0  0  0999 V2000
    2.9814   -1.2075   12.5046 C   0  0  0  0  0  0  0  0  0  0  0  0
    1.7875   -0.5809   12.0640 O   0  0  0  0  0  0  0  0  0  0  0  0
    1.2092    0.3818   12.8448 C   0  0  0  0  0  0  0  0  0  0  0  0
    1.6627    0.6683   14.0996 C   0  0  0  0  0  0  0  0  0  0  0  0
    1.0783    1.6467   14.8987 C   0  0  0  0  0  0  0  0  0  0  0  0
    0.0147    2.3256   14.3793 C   0  0  0  0  0  0  0  0  0  0  0  0
   -0.4584    2.0464   13.1071 C   0  0  0  0  0  0  0  0  0  0  0  0
    0.1149    1.0819   12.3117 C   0  0  0  0  0  0  0  0  0  0  0  0
   -0.3001    0.7656   11.0537 O   0  0  0  0  0  0  0  0  0  0  0  0
   -1.3212    1.2243   10.2821 C   0  0  0  0  0  0  0  0  0  0  0  0
   -1.0803    1.0592    8.8249 C   0  0  0  0  0  0  0  0  0  0  0  0
   -1.6128   -0.2186    8.3403 N   0  0  0  0  0  4  0  0  0  0  0  0
   -0.5693   -1.1650    8.0797 C   0  0  0  0  0  0  0  0  0  0  0  0
   -0.7980   -1.7736    6.6882 C   0  0  1  0  0  0  0  0  0  0  0  0
    0.4929   -2.1746    6.0749 C   0  0  0  0  0  0  0  0  0  0  0  0
    1.0974   -3.3184    6.4323 O   0  0  0  0  0  0  0  0  0  0  0  0
    1.4844   -4.5029    5.9836 C   0  0  0  0  0  0  0  0  0  0  0  0
    1.2805   -4.9802    4.7128 C   0  0  0  0  0  0  0  0  0  0  0  0
    1.7226   -6.2424    4.3308 C   0  0  0  0  0  0  0  0  0  0  0  0
    2.3788   -7.0236    5.2573 C   0  0  0  0  0  0  0  0  0  0  0  0
    2.6025   -6.5785    6.5460 C   0  0  0  0  0  0  0  0  0  0  0  0
    2.1577   -5.3375    6.8899 C   0  0  0  0  0  0  0  0  0  0  0  0
    2.5173   -5.1555    8.2308 C   0  0  0  0  0  0  0  0  0  0  0  0
    2.3429   -4.1176    9.1181 C   0  0  0  0  0  0  0  0  0  0  0  0
    2.8072   -4.1953   10.4212 C   0  0  0  0  0  0  0  0  0  0  0  0
    3.4570   -5.3340   10.8398 C   0  0  0  0  0  0  0  0  0  0  0  0
    3.6426   -6.3776    9.9790 C   0  0  0  0  0  0  0  0  0  0  0  0
    3.1704   -6.2840    8.6733 C   0  0  0  0  0  0  0  0  0  0  0  0
    3.2051   -7.1273    7.6267 N   0  0  0  0  0  0  0  0  0  0  0  0
   -1.7919   -2.6991    6.7451 O   0  0  0  0  0  0  0  0  0  0  0  0
  1  2  1  0
  2  3  1  0
  3  4  2  0
  4  5  1  0
  5  6  2  0
  6  7  1  0
  7  8  2  0
  8  9  1  0
  9 10  1  0
 10 11  1  0
 11 12  1  0
 12 13  1  0
 13 14  1  0
 14 15  1  0
 15 16  1  0
 16 17  1  0
 17 18  2  0
 18 19  1  0
 19 20  2  0
 20 21  1  0
 21 22  2  0
 22 23  1  0
 23 24  2  0
 24 25  1  0
 25 26  2  0
 26 27  1  0
 27 28  2  0
 28 29  1  0
 14 30  1  1
  8  3  1  0
 22 17  1  0
 28 23  1  0
 29 21  1  0
M  CHG  1  12   1
M  END
$$$$
