
     RDKit          3D

 30 33  0  0  0  0  0  0  0  0999 V2000
    3.4635    0.4856   13.0403 C   0  0  0  0  0  0  0  0  0  0  0  0
    2.2144    0.7225   12.4112 O   0  0  0  0  0  0  0  0  0  0  0  0
    1.2571    1.4409   13.0730 C   0  0  0  0  0  0  0  0  0  0  0  0
    1.4885    2.0089   14.2920 C   0  0  0  0  0  0  0  0  0  0  0  0
    0.5183    2.7410   14.9703 C   0  0  0  0  0  0  0  0  0  0  0  0
   -0.6983    2.8766   14.3674 C   0  0  0  0  0  0  0  0  0  0  0  0
   -0.9497    2.3056   13.1300 C   0  0  0  0  0  0  0  0  0  0  0  0
    0.0047    1.5821   12.4538 C   0  0  0  0  0  0  0  0  0  0  0  0
   -0.1795    1.0022   11.2353 O   0  0  0  0  0  0  0  0  0  0  0  0
   -0.0094   -0.2712   10.7903 C   0  0  0  0  0  0  0  0  0  0  0  0
   -1.0074   -0.6770    9.7665 C   0  0  0  0  0  0  0  0  0  0  0  0
   -0.6026   -0.2377    8.4271 N   0  0  0  0  0  4  0  0  0  0  0  0
   -0.0725   -1.3186    7.6504 C   0  0  0  0  0  0  0  0  0  0  0  0
   -0.1469   -0.9354    6.1650 C   0  0  1  0  0  0  0  0  0  0  0  0
    0.4495   -2.0003    5.3203 C   0  0  0  0  0  0  0  0  0  0  0  0
    0.6871   -3.2224    5.8215 O   0  0  0  0  0  0  0  0  0  0  0  0
    1.0682   -4.4493    5.4992 C   0  0  0  0  0  0  0  0  0  0  0  0
    0.8304   -5.0687    4.2975 C   0  0  0  0  0  0  0  0  0  0  0  0
    1.2690   -6.3650    4.0486 C   0  0  0  0  0  0  0  0  0  0  0  0
    1.9567   -7.0337    5.0381 C   0  0  0  0  0  0  0  0  0  0  0  0
    2.2150   -6.4441    6.2606 C   0  0  0  0  0  0  0  0  0  0  0  0
    1.7728   -5.1734    6.4742 C   0  0  0  0  0  0  0  0  0  0  0  0
    2.1700   -4.8388    7.7744 C   0  0  0  0  0  0  0  0  0  0  0  0
    2.0152   -3.7071    8.5427 C   0  0  0  0  0  0  0  0  0  0  0  0
    2.5176   -3.6347    9.8318 C   0  0  0  0  0  0  0  0  0  0  0  0
    3.1864   -4.7164   10.3578 C   0  0  0  0  0  0  0  0  0  0  0  0
    3.3533   -5.8507    9.6162 C   0  0  0  0  0  0  0  0  0  0  0  0
    2.8427   -5.9078    8.3229 C   0  0  0  0  0  0  0  0  0  0  0  0
    2.8521   -6.8646    7.3784 N   0  0  0  0  0  0  0  0  0  0  0  0
   -1.3999   -0.5060    5.8597 O   0  0  0  0  0  0  0  0  0  0  0  0
  1  2  1  0
  2  3  1  0
  3  4  2  0
  4  5  1  0
  5  6  2  0
  6  7  1  0
  7  8  2  0
  8  9  1  0
  9 10  1  0
 10 11  1  0
 11 12  1  0
 12 13  1  0
 13 14  1  0
 14 15  1  0
 15 16  1  0
 16 17  1  0
 17 18  2  0
 18 19  1  0
 19 20  2  0
 20 21  1  0
 21 22  2  0
 22 23  1  0
 23 24  2  0
 24 25  1  0
 25 26  2  0
 26 27  1  0
 27 28  2  0
 28 29  1  0
 14 30  1  6
  8  3  1  0
 22 17  1  0
 28 23  1  0
 29 21  1  0
M  CHG  1  12   1
M  END
$$$$
