
     RDKit          3D

 30 33  0  0  0  0  0  0  0  0999 V2000
   -2.9291    6.7613    9.3930 C   0  0  0  0  0  0  0  0  0  0  0  0
   -3.7312    5.6929    9.8696 O   0  0  0  0  0  0  0  0  0  0  0  0
   -3.4503    5.1362   11.0869 C   0  0  0  0  0  0  0  0  0  0  0  0
   -3.4380    5.8715   12.2363 C   0  0  0  0  0  0  0  0  0  0  0  0
   -3.1528    5.3107   13.4779 C   0  0  0  0  0  0  0  0  0  0  0  0
   -2.8793    3.9743   13.5126 C   0  0  0  0  0  0  0  0  0  0  0  0
   -2.8871    3.2134   12.3544 C   0  0  0  0  0  0  0  0  0  0  0  0
   -3.1691    3.7609   11.1246 C   0  0  0  0  0  0  0  0  0  0  0  0
   -3.1975    3.0662    9.9536 O   0  0  0  0  0  0  0  0  0  0  0  0
   -2.9023    1.7752    9.6454 C   0  0  0  0  0  0  0  0  0  0  0  0
   -2.7991    1.5259    8.1840 C   0  0  0  0  0  0  0  0  0  0  0  0
   -1.4359    1.1383    7.8066 N   0  0  0  0  0  4  0  0  0  0  0  0
   -1.3808   -0.2090    7.3224 C   0  0  0  0  0  0  0  0  0  0  0  0
   -0.2556   -0.9481    8.0616 C   0  0  1  0  0  0  0  0  0  0  0  0
   -0.3471   -2.4104    7.8238 C   0  0  0  0  0  0  0  0  0  0  0  0
    0.6555   -3.0735    7.2269 O   0  0  0  0  0  0  0  0  0  0  0  0
    0.9312   -4.1032    6.4407 C   0  0  0  0  0  0  0  0  0  0  0  0
    0.3715   -4.3393    5.2097 C   0  0  0  0  0  0  0  0  0  0  0  0
    0.7224   -5.4524    4.4530 C   0  0  0  0  0  0  0  0  0  0  0  0
    1.6539   -6.3322    4.9606 C   0  0  0  0  0  0  0  0  0  0  0  0
    2.2389   -6.1291    6.1956 C   0  0  0  0  0  0  0  0  0  0  0  0
    1.8747   -5.0295    6.9128 C   0  0  0  0  0  0  0  0  0  0  0  0
    2.6142   -5.0800    8.1007 C   0  0  0  0  0  0  0  0  0  0  0  0
    2.6783   -4.2587    9.2036 C   0  0  0  0  0  0  0  0  0  0  0  0
    3.5154   -4.5450   10.2699 C   0  0  0  0  0  0  0  0  0  0  0  0
    4.3006   -5.6744   10.2278 C   0  0  0  0  0  0  0  0  0  0  0  0
    4.2554   -6.5053    9.1452 C   0  0  0  0  0  0  0  0  0  0  0  0
    3.4094   -6.2039    8.0821 C   0  0  0  0  0  0  0  0  0  0  0  0
    3.1575   -6.8177    6.9127 N   0  0  0  0  0  0  0  0  0  0  0  0
    0.9347   -0.3365    7.8235 O   0  0  0  0  0  0  0  0  0  0  0  0
  1  2  1  0
  2  3  1  0
  3  4  2  0
  4  5  1  0
  5  6  2  0
  6  7  1  0
  7  8  2  0
  8  9  1  0
  9 10  1  0
 10 11  1  0
 11 12  1  0
 12 13  1  0
 13 14  1  0
 14 15  1  0
 15 16  1  0
 16 17  1  0
 17 18  2  0
 18 19  1  0
 19 20  2  0
 20 21  1  0
 21 22  2  0
 22 23  1  0
 23 24  2  0
 24 25  1  0
 25 26  2  0
 26 27  1  0
 27 28  2  0
 28 29  1  0
 14 30  1  6
  8  3  1  0
 22 17  1  0
 28 23  1  0
 29 21  1  0
M  CHG  1  12   1
M  END
$$$$
