
     RDKit          3D

 30 33  0  0  0  0  0  0  0  0999 V2000
   -5.4377    2.5665   12.0940 C   0  0  0  0  0  0  0  0  0  0  0  0
   -4.1666    2.6230   11.4668 O   0  0  0  0  0  0  0  0  0  0  0  0
   -3.1323    3.2500   12.1053 C   0  0  0  0  0  0  0  0  0  0  0  0
   -3.3269    4.3318   12.9139 C   0  0  0  0  0  0  0  0  0  0  0  0
   -2.2784    4.9740   13.5662 C   0  0  0  0  0  0  0  0  0  0  0  0
   -1.0221    4.4794   13.3685 C   0  0  0  0  0  0  0  0  0  0  0  0
   -0.8073    3.3820   12.5501 C   0  0  0  0  0  0  0  0  0  0  0  0
   -1.8388    2.7420   11.9036 C   0  0  0  0  0  0  0  0  0  0  0  0
   -1.6928    1.6579   11.0922 O   0  0  0  0  0  0  0  0  0  0  0  0
   -0.6447    1.1940   10.3608 C   0  0  0  0  0  0  0  0  0  0  0  0
   -0.9842    0.0120    9.5265 C   0  0  0  0  0  0  0  0  0  0  0  0
   -0.6466    0.2417    8.1179 N   0  0  0  0  0  4  0  0  0  0  0  0
   -0.3634   -0.9840    7.4322 C   0  0  0  0  0  0  0  0  0  0  0  0
    0.0080   -0.6559    5.9784 C   0  0  1  0  0  0  0  0  0  0  0  0
    0.9340   -1.6793    5.4322 C   0  0  0  0  0  0  0  0  0  0  0  0
    0.9498   -2.9262    5.9283 O   0  0  0  0  0  0  0  0  0  0  0  0
    1.2013   -4.1902    5.6226 C   0  0  0  0  0  0  0  0  0  0  0  0
    0.8895   -4.8005    4.4332 C   0  0  0  0  0  0  0  0  0  0  0  0
    1.1919   -6.1382    4.2014 C   0  0  0  0  0  0  0  0  0  0  0  0
    1.8184   -6.8582    5.1956 C   0  0  0  0  0  0  0  0  0  0  0  0
    2.1478   -6.2794    6.4062 C   0  0  0  0  0  0  0  0  0  0  0  0
    1.8388   -4.9672    6.6030 C   0  0  0  0  0  0  0  0  0  0  0  0
    2.2812   -4.6550    7.8942 C   0  0  0  0  0  0  0  0  0  0  0  0
    2.2498   -3.5019    8.6454 C   0  0  0  0  0  0  0  0  0  0  0  0
    2.7702   -3.4613    9.9288 C   0  0  0  0  0  0  0  0  0  0  0  0
    3.3312   -4.5972   10.4663 C   0  0  0  0  0  0  0  0  0  0  0  0
    3.3747   -5.7537    9.7417 C   0  0  0  0  0  0  0  0  0  0  0  0
    2.8477   -5.7782    8.4539 C   0  0  0  0  0  0  0  0  0  0  0  0
    2.7504   -6.7454    7.5250 N   0  0  0  0  0  0  0  0  0  0  0  0
   -1.1141   -0.3668    5.2677 O   0  0  0  0  0  0  0  0  0  0  0  0
  1  2  1  0
  2  3  1  0
  3  4  2  0
  4  5  1  0
  5  6  2  0
  6  7  1  0
  7  8  2  0
  8  9  1  0
  9 10  1  0
 10 11  1  0
 11 12  1  0
 12 13  1  0
 13 14  1  0
 14 15  1  0
 15 16  1  0
 16 17  1  0
 17 18  2  0
 18 19  1  0
 19 20  2  0
 20 21  1  0
 21 22  2  0
 22 23  1  0
 23 24  2  0
 24 25  1  0
 25 26  2  0
 26 27  1  0
 27 28  2  0
 28 29  1  0
 14 30  1  6
  8  3  1  0
 22 17  1  0
 28 23  1  0
 29 21  1  0
M  CHG  1  12   1
M  END
$$$$
