
     RDKit          3D

 30 33  0  0  0  0  0  0  0  0999 V2000
    0.1333    4.8271    9.6898 C   0  0  0  0  0  0  0  0  0  0  0  0
   -0.3731    3.9531   10.6857 O   0  0  0  0  0  0  0  0  0  0  0  0
   -1.6676    4.0935   11.1043 C   0  0  0  0  0  0  0  0  0  0  0  0
   -2.2008    5.3092   11.4205 C   0  0  0  0  0  0  0  0  0  0  0  0
   -3.5173    5.4583   11.8470 C   0  0  0  0  0  0  0  0  0  0  0  0
   -4.2758    4.3280   11.9423 C   0  0  0  0  0  0  0  0  0  0  0  0
   -3.7494    3.0860   11.6255 C   0  0  0  0  0  0  0  0  0  0  0  0
   -2.4499    2.9315   11.2024 C   0  0  0  0  0  0  0  0  0  0  0  0
   -1.8773    1.7408   10.8720 O   0  0  0  0  0  0  0  0  0  0  0  0
   -2.3763    0.4803   10.7686 C   0  0  0  0  0  0  0  0  0  0  0  0
   -1.3293   -0.5541   10.5628 C   0  0  0  0  0  0  0  0  0  0  0  0
   -0.5906   -0.3214    9.3174 N   0  0  0  0  0  4  0  0  0  0  0  0
   -0.8521   -1.3411    8.3455 C   0  0  0  0  0  0  0  0  0  0  0  0
   -0.3897   -0.8359    6.9708 C   0  0  1  0  0  0  0  0  0  0  0  0
    0.8612   -1.5194    6.5569 C   0  0  0  0  0  0  0  0  0  0  0  0
    0.9773   -2.8534    6.6466 O   0  0  0  0  0  0  0  0  0  0  0  0
    1.1950   -3.9527    5.9406 C   0  0  0  0  0  0  0  0  0  0  0  0
    0.7912   -4.1620    4.6454 C   0  0  0  0  0  0  0  0  0  0  0  0
    1.0644   -5.3538    3.9824 C   0  0  0  0  0  0  0  0  0  0  0  0
    1.7566   -6.3406    4.6507 C   0  0  0  0  0  0  0  0  0  0  0  0
    2.1792   -6.1676    5.9547 C   0  0  0  0  0  0  0  0  0  0  0  0
    1.8966   -4.9891    6.5770 C   0  0  0  0  0  0  0  0  0  0  0  0
    2.4358   -5.0927    7.8650 C   0  0  0  0  0  0  0  0  0  0  0  0
    2.4695   -4.2355    8.9416 C   0  0  0  0  0  0  0  0  0  0  0  0
    3.0835   -4.5932   10.1310 C   0  0  0  0  0  0  0  0  0  0  0  0
    3.6732   -5.8319   10.2408 C   0  0  0  0  0  0  0  0  0  0  0  0
    3.6534   -6.7004    9.1873 C   0  0  0  0  0  0  0  0  0  0  0  0
    3.0326   -6.3263    7.9994 C   0  0  0  0  0  0  0  0  0  0  0  0
    2.8589   -6.9529    6.8226 N   0  0  0  0  0  0  0  0  0  0  0  0
   -1.4346   -0.8368    6.1015 O   0  0  0  0  0  0  0  0  0  0  0  0
  1  2  1  0
  2  3  1  0
  3  4  2  0
  4  5  1  0
  5  6  2  0
  6  7  1  0
  7  8  2  0
  8  9  1  0
  9 10  1  0
 10 11  1  0
 11 12  1  0
 12 13  1  0
 13 14  1  0
 14 15  1  0
 15 16  1  0
 16 17  1  0
 17 18  2  0
 18 19  1  0
 19 20  2  0
 20 21  1  0
 21 22  2  0
 22 23  1  0
 23 24  2  0
 24 25  1  0
 25 26  2  0
 26 27  1  0
 27 28  2  0
 28 29  1  0
 14 30  1  6
  8  3  1  0
 22 17  1  0
 28 23  1  0
 29 21  1  0
M  CHG  1  12   1
M  END
$$$$
