
     RDKit          3D

 30 33  0  0  0  0  0  0  0  0999 V2000
   -3.0040    4.4772    8.6467 C   0  0  0  0  0  0  0  0  0  0  0  0
   -2.5306    3.5400    9.6005 O   0  0  0  0  0  0  0  0  0  0  0  0
   -2.2033    3.9706   10.8568 C   0  0  0  0  0  0  0  0  0  0  0  0
   -2.3124    5.2794   11.2274 C   0  0  0  0  0  0  0  0  0  0  0  0
   -1.9808    5.7235   12.5041 C   0  0  0  0  0  0  0  0  0  0  0  0
   -1.5330    4.7910   13.3941 C   0  0  0  0  0  0  0  0  0  0  0  0
   -1.4160    3.4581   13.0336 C   0  0  0  0  0  0  0  0  0  0  0  0
   -1.7429    3.0123   11.7742 C   0  0  0  0  0  0  0  0  0  0  0  0
   -1.6548    1.7173   11.3619 O   0  0  0  0  0  0  0  0  0  0  0  0
   -0.6772    0.7803   11.4837 C   0  0  0  0  0  0  0  0  0  0  0  0
   -0.9500   -0.4612   10.7136 C   0  0  0  0  0  0  0  0  0  0  0  0
   -0.9810   -0.1954    9.2716 N   0  0  0  0  0  4  0  0  0  0  0  0
   -0.3745   -1.2554    8.5224 C   0  0  0  0  0  0  0  0  0  0  0  0
   -0.4354   -0.8959    7.0304 C   0  0  1  0  0  0  0  0  0  0  0  0
   -0.4376   -2.1242    6.1969 C   0  0  0  0  0  0  0  0  0  0  0  0
    0.6587   -2.8926    6.1029 O   0  0  0  0  0  0  0  0  0  0  0  0
    1.1321   -4.0114    5.5752 C   0  0  0  0  0  0  0  0  0  0  0  0
    0.8920   -4.4554    4.2987 C   0  0  0  0  0  0  0  0  0  0  0  0
    1.4325   -5.6483    3.8302 C   0  0  0  0  0  0  0  0  0  0  0  0
    2.2254   -6.3940    4.6755 C   0  0  0  0  0  0  0  0  0  0  0  0
    2.4896   -5.9807    5.9671 C   0  0  0  0  0  0  0  0  0  0  0  0
    1.9460   -4.8077    6.3967 C   0  0  0  0  0  0  0  0  0  0  0  0
    2.3752   -4.6438    7.7193 C   0  0  0  0  0  0  0  0  0  0  0  0
    2.1573   -3.6665    8.6640 C   0  0  0  0  0  0  0  0  0  0  0  0
    2.7141   -3.7484    9.9300 C   0  0  0  0  0  0  0  0  0  0  0  0
    3.5024   -4.8294   10.2525 C   0  0  0  0  0  0  0  0  0  0  0  0
    3.7338   -5.8123    9.3333 C   0  0  0  0  0  0  0  0  0  0  0  0
    3.1674   -5.7154    8.0659 C   0  0  0  0  0  0  0  0  0  0  0  0
    3.2162   -6.5074    6.9805 N   0  0  0  0  0  0  0  0  0  0  0  0
   -1.4138    0.0228    6.8149 O   0  0  0  0  0  0  0  0  0  0  0  0
  1  2  1  0
  2  3  1  0
  3  4  2  0
  4  5  1  0
  5  6  2  0
  6  7  1  0
  7  8  2  0
  8  9  1  0
  9 10  1  0
 10 11  1  0
 11 12  1  0
 12 13  1  0
 13 14  1  0
 14 15  1  0
 15 16  1  0
 16 17  1  0
 17 18  2  0
 18 19  1  0
 19 20  2  0
 20 21  1  0
 21 22  2  0
 22 23  1  0
 23 24  2  0
 24 25  1  0
 25 26  2  0
 26 27  1  0
 27 28  2  0
 28 29  1  0
 14 30  1  1
  8  3  1  0
 22 17  1  0
 28 23  1  0
 29 21  1  0
M  CHG  1  12   1
M  END
$$$$
