
     RDKit          3D

 30 33  0  0  0  0  0  0  0  0999 V2000
   -0.0400    4.2646   13.4679 C   0  0  0  0  0  0  0  0  0  0  0  0
   -0.6547    4.1062   12.1994 O   0  0  0  0  0  0  0  0  0  0  0  0
   -1.8222    4.7674   11.9339 C   0  0  0  0  0  0  0  0  0  0  0  0
   -2.0193    6.0677   12.2980 C   0  0  0  0  0  0  0  0  0  0  0  0
   -3.2051    6.7458   12.0306 C   0  0  0  0  0  0  0  0  0  0  0  0
   -4.1867    6.0566   11.3799 C   0  0  0  0  0  0  0  0  0  0  0  0
   -4.0027    4.7356   11.0038 C   0  0  0  0  0  0  0  0  0  0  0  0
   -2.8332    4.0600   11.2637 C   0  0  0  0  0  0  0  0  0  0  0  0
   -2.5904    2.7659   10.9156 O   0  0  0  0  0  0  0  0  0  0  0  0
   -3.3396    1.8340   10.2685 C   0  0  0  0  0  0  0  0  0  0  0  0
   -2.6303    0.5440   10.0646 C   0  0  0  0  0  0  0  0  0  0  0  0
   -2.1718    0.4036    8.6786 N   0  0  0  0  0  4  0  0  0  0  0  0
   -0.8398   -0.1195    8.6095 C   0  0  0  0  0  0  0  0  0  0  0  0
   -0.7467   -1.0606    7.3994 C   0  0  1  0  0  0  0  0  0  0  0  0
   -1.0756   -2.4532    7.7942 C   0  0  0  0  0  0  0  0  0  0  0  0
   -0.2002   -3.4500    7.5908 O   0  0  0  0  0  0  0  0  0  0  0  0
    0.5467   -4.3531    8.2080 C   0  0  0  0  0  0  0  0  0  0  0  0
    0.6594   -4.5003    9.5682 C   0  0  0  0  0  0  0  0  0  0  0  0
    1.4726   -5.4799   10.1284 C   0  0  0  0  0  0  0  0  0  0  0  0
    2.1771   -6.3161    9.2895 C   0  0  0  0  0  0  0  0  0  0  0  0
    2.0901   -6.1988    7.9156 C   0  0  0  0  0  0  0  0  0  0  0  0
    1.2850   -5.2297    7.3971 C   0  0  0  0  0  0  0  0  0  0  0  0
    1.3902   -5.3430    6.0055 C   0  0  0  0  0  0  0  0  0  0  0  0
    0.8205   -4.6514    4.9605 C   0  0  0  0  0  0  0  0  0  0  0  0
    1.0999   -4.9746    3.6425 C   0  0  0  0  0  0  0  0  0  0  0  0
    1.9656   -6.0091    3.3698 C   0  0  0  0  0  0  0  0  0  0  0  0
    2.5438   -6.7106    4.3886 C   0  0  0  0  0  0  0  0  0  0  0  0
    2.2529   -6.3738    5.7071 C   0  0  0  0  0  0  0  0  0  0  0  0
    2.6594   -6.8714    6.8881 N   0  0  0  0  0  0  0  0  0  0  0  0
   -1.4116   -0.5234    6.3426 O   0  0  0  0  0  0  0  0  0  0  0  0
  1  2  1  0
  2  3  1  0
  3  4  2  0
  4  5  1  0
  5  6  2  0
  6  7  1  0
  7  8  2  0
  8  9  1  0
  9 10  1  0
 10 11  1  0
 11 12  1  0
 12 13  1  0
 13 14  1  0
 14 15  1  0
 15 16  1  0
 16 17  1  0
 17 18  2  0
 18 19  1  0
 19 20  2  0
 20 21  1  0
 21 22  2  0
 22 23  1  0
 23 24  2  0
 24 25  1  0
 25 26  2  0
 26 27  1  0
 27 28  2  0
 28 29  1  0
 14 30  1  6
  8  3  1  0
 22 17  1  0
 28 23  1  0
 29 21  1  0
M  CHG  1  12   1
M  END
$$$$
