
     RDKit          3D

 30 33  0  0  0  0  0  0  0  0999 V2000
   -0.1138    3.6162   12.8248 C   0  0  0  0  0  0  0  0  0  0  0  0
   -1.2067    3.0561   12.1150 O   0  0  0  0  0  0  0  0  0  0  0  0
   -2.2602    3.8563   11.7676 C   0  0  0  0  0  0  0  0  0  0  0  0
   -2.3682    5.1448   12.2039 C   0  0  0  0  0  0  0  0  0  0  0  0
   -3.4377    5.9638   11.8539 C   0  0  0  0  0  0  0  0  0  0  0  0
   -4.3968    5.4284   11.0442 C   0  0  0  0  0  0  0  0  0  0  0  0
   -4.3023    4.1217   10.5929 C   0  0  0  0  0  0  0  0  0  0  0  0
   -3.2477    3.3073   10.9339 C   0  0  0  0  0  0  0  0  0  0  0  0
   -3.0960    2.0190   10.5191 O   0  0  0  0  0  0  0  0  0  0  0  0
   -3.9056    0.9294   10.5951 C   0  0  0  0  0  0  0  0  0  0  0  0
   -3.4696   -0.1922    9.7230 C   0  0  0  0  0  0  0  0  0  0  0  0
   -2.0516   -0.0692    9.3692 N   0  0  0  0  0  4  0  0  0  0  0  0
   -1.6165   -1.1483    8.5332 C   0  0  0  0  0  0  0  0  0  0  0  0
   -0.1073   -0.9999    8.2898 C   0  0  1  0  0  0  0  0  0  0  0  0
    0.2891   -1.6856    7.0344 C   0  0  0  0  0  0  0  0  0  0  0  0
    0.7098   -2.9600    7.0510 O   0  0  0  0  0  0  0  0  0  0  0  0
    0.7500   -4.0768    6.3401 C   0  0  0  0  0  0  0  0  0  0  0  0
    0.1385   -4.2727    5.1268 C   0  0  0  0  0  0  0  0  0  0  0  0
    0.2347   -5.4849    4.4516 C   0  0  0  0  0  0  0  0  0  0  0  0
    0.9626   -6.5062    5.0231 C   0  0  0  0  0  0  0  0  0  0  0  0
    1.5919   -6.3476    6.2428 C   0  0  0  0  0  0  0  0  0  0  0  0
    1.4793   -5.1484    6.8796 C   0  0  0  0  0  0  0  0  0  0  0  0
    2.2047   -5.2733    8.0707 C   0  0  0  0  0  0  0  0  0  0  0  0
    2.4556   -4.4101    9.1132 C   0  0  0  0  0  0  0  0  0  0  0  0
    3.2245   -4.7940   10.2000 C   0  0  0  0  0  0  0  0  0  0  0  0
    3.7499   -6.0654   10.2402 C   0  0  0  0  0  0  0  0  0  0  0  0
    3.5156   -6.9406    9.2186 C   0  0  0  0  0  0  0  0  0  0  0  0
    2.7413   -6.5398    8.1340 C   0  0  0  0  0  0  0  0  0  0  0  0
    2.3504   -7.1652    7.0098 N   0  0  0  0  0  0  0  0  0  0  0  0
    0.2624    0.2980    8.4517 O   0  0  0  0  0  0  0  0  0  0  0  0
  1  2  1  0
  2  3  1  0
  3  4  2  0
  4  5  1  0
  5  6  2  0
  6  7  1  0
  7  8  2  0
  8  9  1  0
  9 10  1  0
 10 11  1  0
 11 12  1  0
 12 13  1  0
 13 14  1  0
 14 15  1  0
 15 16  1  0
 16 17  1  0
 17 18  2  0
 18 19  1  0
 19 20  2  0
 20 21  1  0
 21 22  2  0
 22 23  1  0
 23 24  2  0
 24 25  1  0
 25 26  2  0
 26 27  1  0
 27 28  2  0
 28 29  1  0
 14 30  1  6
  8  3  1  0
 22 17  1  0
 28 23  1  0
 29 21  1  0
M  CHG  1  12   1
M  END
$$$$
