
     RDKit          3D

 30 33  0  0  0  0  0  0  0  0999 V2000
   -3.7953    5.2891   11.5567 C   0  0  0  0  0  0  0  0  0  0  0  0
   -3.1910    4.0144   11.4083 O   0  0  0  0  0  0  0  0  0  0  0  0
   -2.1538    3.6656   12.2288 C   0  0  0  0  0  0  0  0  0  0  0  0
   -1.8365    4.3850   13.3441 C   0  0  0  0  0  0  0  0  0  0  0  0
   -0.7822    4.0351   14.1828 C   0  0  0  0  0  0  0  0  0  0  0  0
   -0.0588    2.9272   13.8493 C   0  0  0  0  0  0  0  0  0  0  0  0
   -0.3676    2.1860   12.7200 C   0  0  0  0  0  0  0  0  0  0  0  0
   -1.4086    2.5254   11.8876 C   0  0  0  0  0  0  0  0  0  0  0  0
   -1.7643    1.8357   10.7684 O   0  0  0  0  0  0  0  0  0  0  0  0
   -1.2212    0.7566   10.1445 C   0  0  0  0  0  0  0  0  0  0  0  0
   -1.9925    0.3128    8.9541 C   0  0  0  0  0  0  0  0  0  0  0  0
   -1.1791    0.3885    7.7361 N   0  0  0  0  0  4  0  0  0  0  0  0
   -0.3566   -0.7732    7.5728 C   0  0  0  0  0  0  0  0  0  0  0  0
   -0.0657   -0.9594    6.0763 C   0  0  1  0  0  0  0  0  0  0  0  0
   -0.3244   -2.3618    5.6645 C   0  0  0  0  0  0  0  0  0  0  0  0
    0.4626   -3.3603    6.0943 O   0  0  0  0  0  0  0  0  0  0  0  0
    1.0510   -4.4872    5.7224 C   0  0  0  0  0  0  0  0  0  0  0  0
    0.8785   -5.1163    4.5146 C   0  0  0  0  0  0  0  0  0  0  0  0
    1.5396   -6.3020    4.2116 C   0  0  0  0  0  0  0  0  0  0  0  0
    2.3844   -6.8492    5.1530 C   0  0  0  0  0  0  0  0  0  0  0  0
    2.5836   -6.2460    6.3799 C   0  0  0  0  0  0  0  0  0  0  0  0
    1.9220   -5.0853    6.6470 C   0  0  0  0  0  0  0  0  0  0  0  0
    2.3086   -4.7080    7.9387 C   0  0  0  0  0  0  0  0  0  0  0  0
    1.9804   -3.6410    8.7441 C   0  0  0  0  0  0  0  0  0  0  0  0
    2.5186   -3.5011   10.0130 C   0  0  0  0  0  0  0  0  0  0  0  0
    3.4009   -4.4482   10.4806 C   0  0  0  0  0  0  0  0  0  0  0  0
    3.7426   -5.5161    9.7012 C   0  0  0  0  0  0  0  0  0  0  0  0
    3.1934   -5.6423    8.4289 C   0  0  0  0  0  0  0  0  0  0  0  0
    3.3382   -6.5615    7.4584 N   0  0  0  0  0  0  0  0  0  0  0  0
   -0.6575    0.0345    5.3623 O   0  0  0  0  0  0  0  0  0  0  0  0
  1  2  1  0
  2  3  1  0
  3  4  2  0
  4  5  1  0
  5  6  2  0
  6  7  1  0
  7  8  2  0
  8  9  1  0
  9 10  1  0
 10 11  1  0
 11 12  1  0
 12 13  1  0
 13 14  1  0
 14 15  1  0
 15 16  1  0
 16 17  1  0
 17 18  2  0
 18 19  1  0
 19 20  2  0
 20 21  1  0
 21 22  2  0
 22 23  1  0
 23 24  2  0
 24 25  1  0
 25 26  2  0
 26 27  1  0
 27 28  2  0
 28 29  1  0
 14 30  1  6
  8  3  1  0
 22 17  1  0
 28 23  1  0
 29 21  1  0
M  CHG  1  12   1
M  END
$$$$
