
     RDKit          3D

 30 33  0  0  0  0  0  0  0  0999 V2000
   -4.1179    0.4920   12.5356 C   0  0  0  0  0  0  0  0  0  0  0  0
   -3.4533    1.2814   11.5623 O   0  0  0  0  0  0  0  0  0  0  0  0
   -3.2669    2.6160   11.7964 C   0  0  0  0  0  0  0  0  0  0  0  0
   -3.7352    3.2282   12.9225 C   0  0  0  0  0  0  0  0  0  0  0  0
   -3.5486    4.5858   13.1662 C   0  0  0  0  0  0  0  0  0  0  0  0
   -2.8691    5.3027   12.2247 C   0  0  0  0  0  0  0  0  0  0  0  0
   -2.3874    4.6963   11.0756 C   0  0  0  0  0  0  0  0  0  0  0  0
   -2.5672    3.3553   10.8290 C   0  0  0  0  0  0  0  0  0  0  0  0
   -2.1142    2.7016    9.7235 O   0  0  0  0  0  0  0  0  0  0  0  0
   -1.3206    3.0889    8.6896 C   0  0  0  0  0  0  0  0  0  0  0  0
   -1.1729    2.0498    7.6373 C   0  0  0  0  0  0  0  0  0  0  0  0
   -0.6270    0.8066    8.1917 N   0  0  0  0  0  4  0  0  0  0  0  0
   -0.5300   -0.2212    7.1983 C   0  0  0  0  0  0  0  0  0  0  0  0
   -0.9799   -1.5496    7.8242 C   0  0  1  0  0  0  0  0  0  0  0  0
    0.0413   -2.0498    8.7782 C   0  0  0  0  0  0  0  0  0  0  0  0
    0.8468   -3.0717    8.4492 O   0  0  0  0  0  0  0  0  0  0  0  0
    1.7976   -3.8692    8.9122 C   0  0  0  0  0  0  0  0  0  0  0  0
    2.4412   -3.7277   10.1163 C   0  0  0  0  0  0  0  0  0  0  0  0
    3.4322   -4.6165   10.5197 C   0  0  0  0  0  0  0  0  0  0  0  0
    3.7681   -5.6591    9.6833 C   0  0  0  0  0  0  0  0  0  0  0  0
    3.1433   -5.8344    8.4635 C   0  0  0  0  0  0  0  0  0  0  0  0
    2.1765   -4.9475    8.0967 C   0  0  0  0  0  0  0  0  0  0  0  0
    1.7267   -5.3641    6.8379 C   0  0  0  0  0  0  0  0  0  0  0  0
    0.7749   -4.8767    5.9711 C   0  0  0  0  0  0  0  0  0  0  0  0
    0.5192   -5.4938    4.7573 C   0  0  0  0  0  0  0  0  0  0  0  0
    1.2311   -6.6187    4.4084 C   0  0  0  0  0  0  0  0  0  0  0  0
    2.1807   -7.1221    5.2507 C   0  0  0  0  0  0  0  0  0  0  0  0
    2.4257   -6.4908    6.4663 C   0  0  0  0  0  0  0  0  0  0  0  0
    3.2768   -6.7491    7.4747 N   0  0  0  0  0  0  0  0  0  0  0  0
   -2.2631   -1.4450    8.2604 O   0  0  0  0  0  0  0  0  0  0  0  0
  1  2  1  0
  2  3  1  0
  3  4  2  0
  4  5  1  0
  5  6  2  0
  6  7  1  0
  7  8  2  0
  8  9  1  0
  9 10  1  0
 10 11  1  0
 11 12  1  0
 12 13  1  0
 13 14  1  0
 14 15  1  0
 15 16  1  0
 16 17  1  0
 17 18  2  0
 18 19  1  0
 19 20  2  0
 20 21  1  0
 21 22  2  0
 22 23  1  0
 23 24  2  0
 24 25  1  0
 25 26  2  0
 26 27  1  0
 27 28  2  0
 28 29  1  0
 14 30  1  1
  8  3  1  0
 22 17  1  0
 28 23  1  0
 29 21  1  0
M  CHG  1  12   1
M  END
$$$$
