
     RDKit          3D

 30 33  0  0  0  0  0  0  0  0999 V2000
   -3.6566    4.8255    8.5842 C   0  0  0  0  0  0  0  0  0  0  0  0
   -3.0389    3.7908    9.3324 O   0  0  0  0  0  0  0  0  0  0  0  0
   -2.7204    4.0117   10.6441 C   0  0  0  0  0  0  0  0  0  0  0  0
   -2.9298    5.2166   11.2494 C   0  0  0  0  0  0  0  0  0  0  0  0
   -2.6078    5.4473   12.5837 C   0  0  0  0  0  0  0  0  0  0  0  0
   -2.0637    4.4103   13.2842 C   0  0  0  0  0  0  0  0  0  0  0  0
   -1.8441    3.1807   12.6843 C   0  0  0  0  0  0  0  0  0  0  0  0
   -2.1610    2.9454   11.3668 C   0  0  0  0  0  0  0  0  0  0  0  0
   -1.9744    1.7599   10.7231 O   0  0  0  0  0  0  0  0  0  0  0  0
   -1.3987    0.5891   11.1055 C   0  0  0  0  0  0  0  0  0  0  0  0
   -1.5318   -0.4922   10.0947 C   0  0  0  0  0  0  0  0  0  0  0  0
   -1.1985   -0.0071    8.7514 N   0  0  0  0  0  4  0  0  0  0  0  0
   -0.5955   -1.0308    7.9507 C   0  0  0  0  0  0  0  0  0  0  0  0
   -0.3096   -0.4551    6.5558 C   0  0  1  0  0  0  0  0  0  0  0  0
    0.8346   -1.1592    5.9246 C   0  0  0  0  0  0  0  0  0  0  0  0
    1.1444   -2.4174    6.2739 O   0  0  0  0  0  0  0  0  0  0  0  0
    1.2449   -3.6555    5.8142 C   0  0  0  0  0  0  0  0  0  0  0  0
    0.7937   -4.0923    4.5935 C   0  0  0  0  0  0  0  0  0  0  0  0
    0.9423   -5.4166    4.1951 C   0  0  0  0  0  0  0  0  0  0  0  0
    1.5574   -6.3022    5.0534 C   0  0  0  0  0  0  0  0  0  0  0  0
    2.0242   -5.9006    6.2902 C   0  0  0  0  0  0  0  0  0  0  0  0
    1.8642   -4.5969    6.6518 C   0  0  0  0  0  0  0  0  0  0  0  0
    2.4216   -4.4789    7.9308 C   0  0  0  0  0  0  0  0  0  0  0  0
    2.5579   -3.4225    8.8028 C   0  0  0  0  0  0  0  0  0  0  0  0
    3.1645   -3.5794   10.0385 C   0  0  0  0  0  0  0  0  0  0  0  0
    3.6418   -4.8174   10.4043 C   0  0  0  0  0  0  0  0  0  0  0  0
    3.5187   -5.8813    9.5572 C   0  0  0  0  0  0  0  0  0  0  0  0
    2.9070   -5.7074    8.3195 C   0  0  0  0  0  0  0  0  0  0  0  0
    2.6498   -6.5472    7.3015 N   0  0  0  0  0  0  0  0  0  0  0  0
   -1.4665   -0.3572    5.8491 O   0  0  0  0  0  0  0  0  0  0  0  0
  1  2  1  0
  2  3  1  0
  3  4  2  0
  4  5  1  0
  5  6  2  0
  6  7  1  0
  7  8  2  0
  8  9  1  0
  9 10  1  0
 10 11  1  0
 11 12  1  0
 12 13  1  0
 13 14  1  0
 14 15  1  0
 15 16  1  0
 16 17  1  0
 17 18  2  0
 18 19  1  0
 19 20  2  0
 20 21  1  0
 21 22  2  0
 22 23  1  0
 23 24  2  0
 24 25  1  0
 25 26  2  0
 26 27  1  0
 27 28  2  0
 28 29  1  0
 14 30  1  6
  8  3  1  0
 22 17  1  0
 28 23  1  0
 29 21  1  0
M  CHG  1  12   1
M  END
$$$$
