
     RDKit          3D

 30 33  0  0  0  0  0  0  0  0999 V2000
    0.0390    3.8528   13.7669 C   0  0  0  0  0  0  0  0  0  0  0  0
   -0.6593    3.1534   12.7494 O   0  0  0  0  0  0  0  0  0  0  0  0
   -1.4877    3.8451   11.9091 C   0  0  0  0  0  0  0  0  0  0  0  0
   -1.6431    5.1981   11.9940 C   0  0  0  0  0  0  0  0  0  0  0  0
   -2.4846    5.9074   11.1419 C   0  0  0  0  0  0  0  0  0  0  0  0
   -3.1652    5.1941   10.1985 C   0  0  0  0  0  0  0  0  0  0  0  0
   -3.0190    3.8197   10.0993 C   0  0  0  0  0  0  0  0  0  0  0  0
   -2.1884    3.1127   10.9372 C   0  0  0  0  0  0  0  0  0  0  0  0
   -1.9986    1.7651   10.8864 O   0  0  0  0  0  0  0  0  0  0  0  0
   -2.8154    0.7362   10.5360 C   0  0  0  0  0  0  0  0  0  0  0  0
   -2.1242   -0.3303    9.7656 C   0  0  0  0  0  0  0  0  0  0  0  0
   -1.4306   -1.2650   10.6578 N   0  0  0  0  0  4  0  0  0  0  0  0
   -0.8141   -2.3351    9.9315 C   0  0  0  0  0  0  0  0  0  0  0  0
   -0.0450   -3.2197   10.9240 C   0  0  1  0  0  0  0  0  0  0  0  0
    0.3921   -4.4790   10.2711 C   0  0  0  0  0  0  0  0  0  0  0  0
    0.6667   -4.5127    8.9579 O   0  0  0  0  0  0  0  0  0  0  0  0
    1.0921   -5.2974    7.9792 C   0  0  0  0  0  0  0  0  0  0  0  0
    1.4635   -6.6119    8.1150 C   0  0  0  0  0  0  0  0  0  0  0  0
    1.9007   -7.3598    7.0268 C   0  0  0  0  0  0  0  0  0  0  0  0
    1.9589   -6.7572    5.7886 C   0  0  0  0  0  0  0  0  0  0  0  0
    1.5941   -5.4364    5.6122 C   0  0  0  0  0  0  0  0  0  0  0  0
    1.1698   -4.7302    6.6972 C   0  0  0  0  0  0  0  0  0  0  0  0
    0.8717   -3.4445    6.2297 C   0  0  0  0  0  0  0  0  0  0  0  0
    0.4071   -2.3046    6.8459 C   0  0  0  0  0  0  0  0  0  0  0  0
    0.1913   -1.1355    6.1344 C   0  0  0  0  0  0  0  0  0  0  0  0
    0.4465   -1.1109    4.7822 C   0  0  0  0  0  0  0  0  0  0  0  0
    0.9079   -2.2283    4.1475 C   0  0  0  0  0  0  0  0  0  0  0  0
    1.1196   -3.3949    4.8762 C   0  0  0  0  0  0  0  0  0  0  0  0
    1.5564   -4.6194    4.5336 N   0  0  0  0  0  0  0  0  0  0  0  0
    0.8917   -2.4799   11.5742 O   0  0  0  0  0  0  0  0  0  0  0  0
  1  2  1  0
  2  3  1  0
  3  4  2  0
  4  5  1  0
  5  6  2  0
  6  7  1  0
  7  8  2  0
  8  9  1  0
  9 10  1  0
 10 11  1  0
 11 12  1  0
 12 13  1  0
 13 14  1  0
 14 15  1  0
 15 16  1  0
 16 17  1  0
 17 18  2  0
 18 19  1  0
 19 20  2  0
 20 21  1  0
 21 22  2  0
 22 23  1  0
 23 24  2  0
 24 25  1  0
 25 26  2  0
 26 27  1  0
 27 28  2  0
 28 29  1  0
 14 30  1  6
  8  3  1  0
 22 17  1  0
 28 23  1  0
 29 21  1  0
M  CHG  1  12   1
M  END
$$$$
