
     RDKit          3D

 30 33  0  0  0  0  0  0  0  0999 V2000
   -3.1274    5.6238   11.3925 C   0  0  0  0  0  0  0  0  0  0  0  0
   -2.1731    4.6001   11.1618 O   0  0  0  0  0  0  0  0  0  0  0  0
   -1.6979    3.8768   12.2209 C   0  0  0  0  0  0  0  0  0  0  0  0
   -1.8750    4.2789   13.5129 C   0  0  0  0  0  0  0  0  0  0  0  0
   -1.3938    3.5472   14.5947 C   0  0  0  0  0  0  0  0  0  0  0  0
   -0.7243    2.3905   14.3193 C   0  0  0  0  0  0  0  0  0  0  0  0
   -0.5354    1.9684   13.0130 C   0  0  0  0  0  0  0  0  0  0  0  0
   -1.0092    2.6858   11.9395 C   0  0  0  0  0  0  0  0  0  0  0  0
   -0.8605    2.3215   10.6357 O   0  0  0  0  0  0  0  0  0  0  0  0
   -1.0384    1.1397    9.9874 C   0  0  0  0  0  0  0  0  0  0  0  0
   -0.5979    1.1726    8.5684 C   0  0  0  0  0  0  0  0  0  0  0  0
   -1.5078    0.4043    7.7122 N   0  0  0  0  0  4  0  0  0  0  0  0
   -0.8845   -0.7806    7.2022 C   0  0  0  0  0  0  0  0  0  0  0  0
   -0.5418   -0.5541    5.7223 C   0  0  1  0  0  0  0  0  0  0  0  0
    0.6893   -1.2959    5.3518 C   0  0  0  0  0  0  0  0  0  0  0  0
    0.8824   -2.5575    5.7668 O   0  0  0  0  0  0  0  0  0  0  0  0
    1.2806   -3.7580    5.3737 C   0  0  0  0  0  0  0  0  0  0  0  0
    1.4295   -4.1621    4.0703 C   0  0  0  0  0  0  0  0  0  0  0  0
    1.8529   -5.4481    3.7518 C   0  0  0  0  0  0  0  0  0  0  0  0
    2.1261   -6.3289    4.7760 C   0  0  0  0  0  0  0  0  0  0  0  0
    1.9877   -5.9596    6.1001 C   0  0  0  0  0  0  0  0  0  0  0  0
    1.5714   -4.6929    6.3801 C   0  0  0  0  0  0  0  0  0  0  0  0
    1.5229   -4.6014    7.7764 C   0  0  0  0  0  0  0  0  0  0  0  0
    1.1808   -3.5858    8.6404 C   0  0  0  0  0  0  0  0  0  0  0  0
    1.2201   -3.7619   10.0140 C   0  0  0  0  0  0  0  0  0  0  0  0
    1.6093   -4.9777   10.5282 C   0  0  0  0  0  0  0  0  0  0  0  0
    1.9535   -6.0011    9.6924 C   0  0  0  0  0  0  0  0  0  0  0  0
    1.9089   -5.8084    8.3150 C   0  0  0  0  0  0  0  0  0  0  0  0
    2.1839   -6.6098    7.2710 N   0  0  0  0  0  0  0  0  0  0  0  0
   -1.6505   -0.7358    4.9571 O   0  0  0  0  0  0  0  0  0  0  0  0
  1  2  1  0
  2  3  1  0
  3  4  2  0
  4  5  1  0
  5  6  2  0
  6  7  1  0
  7  8  2  0
  8  9  1  0
  9 10  1  0
 10 11  1  0
 11 12  1  0
 12 13  1  0
 13 14  1  0
 14 15  1  0
 15 16  1  0
 16 17  1  0
 17 18  2  0
 18 19  1  0
 19 20  2  0
 20 21  1  0
 21 22  2  0
 22 23  1  0
 23 24  2  0
 24 25  1  0
 25 26  2  0
 26 27  1  0
 27 28  2  0
 28 29  1  0
 14 30  1  6
  8  3  1  0
 22 17  1  0
 28 23  1  0
 29 21  1  0
M  CHG  1  12   1
M  END
$$$$
