
     RDKit          3D

 30 33  0  0  0  0  0  0  0  0999 V2000
   -0.1304    4.1006   13.6422 C   0  0  0  0  0  0  0  0  0  0  0  0
   -0.7799    3.3718   12.6130 O   0  0  0  0  0  0  0  0  0  0  0  0
   -1.8829    3.9074   12.0070 C   0  0  0  0  0  0  0  0  0  0  0  0
   -2.3807    5.1296   12.3542 C   0  0  0  0  0  0  0  0  0  0  0  0
   -3.5027    5.6798   11.7412 C   0  0  0  0  0  0  0  0  0  0  0  0
   -4.1039    4.9445   10.7614 C   0  0  0  0  0  0  0  0  0  0  0  0
   -3.6113    3.7016   10.3974 C   0  0  0  0  0  0  0  0  0  0  0  0
   -2.5025    3.1525   10.9980 C   0  0  0  0  0  0  0  0  0  0  0  0
   -1.9682    1.9404   10.6815 O   0  0  0  0  0  0  0  0  0  0  0  0
   -2.5142    0.7015   10.5570 C   0  0  0  0  0  0  0  0  0  0  0  0
   -1.5376   -0.3338   10.1291 C   0  0  0  0  0  0  0  0  0  0  0  0
   -0.9441    0.0008    8.8303 N   0  0  0  0  0  4  0  0  0  0  0  0
   -0.7385   -1.1651    8.0234 C   0  0  0  0  0  0  0  0  0  0  0  0
   -0.1923   -0.7237    6.6575 C   0  0  1  0  0  0  0  0  0  0  0  0
   -0.0409   -1.8913    5.7535 C   0  0  0  0  0  0  0  0  0  0  0  0
    0.7711   -2.9098    6.0768 O   0  0  0  0  0  0  0  0  0  0  0  0
    1.1733   -4.1127    5.6952 C   0  0  0  0  0  0  0  0  0  0  0  0
    0.9137   -4.6918    4.4781 C   0  0  0  0  0  0  0  0  0  0  0  0
    1.3775   -5.9653    4.1653 C   0  0  0  0  0  0  0  0  0  0  0  0
    2.1132   -6.6527    5.1065 C   0  0  0  0  0  0  0  0  0  0  0  0
    2.3947   -6.1036    6.3426 C   0  0  0  0  0  0  0  0  0  0  0  0
    1.9268   -4.8543    6.6192 C   0  0  0  0  0  0  0  0  0  0  0  0
    2.3562   -4.5592    7.9188 C   0  0  0  0  0  0  0  0  0  0  0  0
    2.1965   -3.4624    8.7351 C   0  0  0  0  0  0  0  0  0  0  0  0
    2.7374   -3.4259   10.0101 C   0  0  0  0  0  0  0  0  0  0  0  0
    3.4501   -4.5085   10.4727 C   0  0  0  0  0  0  0  0  0  0  0  0
    3.6227   -5.6086    9.6825 C   0  0  0  0  0  0  0  0  0  0  0  0
    3.0732   -5.6299    8.4042 C   0  0  0  0  0  0  0  0  0  0  0  0
    3.0774   -6.5493    7.4231 N   0  0  0  0  0  0  0  0  0  0  0  0
   -0.8935    0.3482    6.2027 O   0  0  0  0  0  0  0  0  0  0  0  0
  1  2  1  0
  2  3  1  0
  3  4  2  0
  4  5  1  0
  5  6  2  0
  6  7  1  0
  7  8  2  0
  8  9  1  0
  9 10  1  0
 10 11  1  0
 11 12  1  0
 12 13  1  0
 13 14  1  0
 14 15  1  0
 15 16  1  0
 16 17  1  0
 17 18  2  0
 18 19  1  0
 19 20  2  0
 20 21  1  0
 21 22  2  0
 22 23  1  0
 23 24  2  0
 24 25  1  0
 25 26  2  0
 26 27  1  0
 27 28  2  0
 28 29  1  0
 14 30  1  6
  8  3  1  0
 22 17  1  0
 28 23  1  0
 29 21  1  0
M  CHG  1  12   1
M  END
$$$$
