
     RDKit          3D

 30 33  0  0  0  0  0  0  0  0999 V2000
    0.9675    4.7454   11.4810 C   0  0  0  0  0  0  0  0  0  0  0  0
    0.0928    3.6310   11.4091 O   0  0  0  0  0  0  0  0  0  0  0  0
   -1.2423    3.8116   11.6446 C   0  0  0  0  0  0  0  0  0  0  0  0
   -1.7615    5.0260   11.9879 C   0  0  0  0  0  0  0  0  0  0  0  0
   -3.1191    5.2159   12.2289 C   0  0  0  0  0  0  0  0  0  0  0  0
   -3.9337    4.1277   12.1096 C   0  0  0  0  0  0  0  0  0  0  0  0
   -3.4224    2.8875   11.7622 C   0  0  0  0  0  0  0  0  0  0  0  0
   -2.0823    2.6930   11.5217 C   0  0  0  0  0  0  0  0  0  0  0  0
   -1.5210    1.5024   11.1724 O   0  0  0  0  0  0  0  0  0  0  0  0
   -2.0431    0.2602   10.9908 C   0  0  0  0  0  0  0  0  0  0  0  0
   -1.0586   -0.7237   10.4700 C   0  0  0  0  0  0  0  0  0  0  0  0
   -0.7085   -0.4370    9.0749 N   0  0  0  0  0  4  0  0  0  0  0  0
   -0.1007   -1.5663    8.4363 C   0  0  0  0  0  0  0  0  0  0  0  0
    0.2427   -1.1829    6.9892 C   0  0  1  0  0  0  0  0  0  0  0  0
    0.2694   -2.3873    6.1221 C   0  0  0  0  0  0  0  0  0  0  0  0
    1.1349   -3.3853    6.3588 O   0  0  0  0  0  0  0  0  0  0  0  0
    1.5240   -4.5791    5.9372 C   0  0  0  0  0  0  0  0  0  0  0  0
    1.3584   -5.0691    4.6657 C   0  0  0  0  0  0  0  0  0  0  0  0
    1.7995   -6.3403    4.3134 C   0  0  0  0  0  0  0  0  0  0  0  0
    2.4151   -7.1175    5.2708 C   0  0  0  0  0  0  0  0  0  0  0  0
    2.5995   -6.6596    6.5612 C   0  0  0  0  0  0  0  0  0  0  0  0
    2.1568   -5.4101    6.8755 C   0  0  0  0  0  0  0  0  0  0  0  0
    2.4723   -5.2161    8.2258 C   0  0  0  0  0  0  0  0  0  0  0  0
    2.2791   -4.1661    9.0947 C   0  0  0  0  0  0  0  0  0  0  0  0
    2.6977   -4.2334   10.4137 C   0  0  0  0  0  0  0  0  0  0  0  0
    3.3203   -5.3738   10.8673 C   0  0  0  0  0  0  0  0  0  0  0  0
    3.5238   -6.4293   10.0253 C   0  0  0  0  0  0  0  0  0  0  0  0
    3.0975   -6.3462    8.7032 C   0  0  0  0  0  0  0  0  0  0  0  0
    3.1587   -7.2020    7.6681 N   0  0  0  0  0  0  0  0  0  0  0  0
   -0.5216   -0.1302    6.5952 O   0  0  0  0  0  0  0  0  0  0  0  0
  1  2  1  0
  2  3  1  0
  3  4  2  0
  4  5  1  0
  5  6  2  0
  6  7  1  0
  7  8  2  0
  8  9  1  0
  9 10  1  0
 10 11  1  0
 11 12  1  0
 12 13  1  0
 13 14  1  0
 14 15  1  0
 15 16  1  0
 16 17  1  0
 17 18  2  0
 18 19  1  0
 19 20  2  0
 20 21  1  0
 21 22  2  0
 22 23  1  0
 23 24  2  0
 24 25  1  0
 25 26  2  0
 26 27  1  0
 27 28  2  0
 28 29  1  0
 14 30  1  6
  8  3  1  0
 22 17  1  0
 28 23  1  0
 29 21  1  0
M  CHG  1  12   1
M  END
$$$$
