
     RDKit          3D

 30 33  0  0  0  0  0  0  0  0999 V2000
   -2.6502    4.8584    7.5396 C   0  0  0  0  0  0  0  0  0  0  0  0
   -3.0898    4.0319    8.6054 O   0  0  0  0  0  0  0  0  0  0  0  0
   -3.2936    4.5836    9.8402 C   0  0  0  0  0  0  0  0  0  0  0  0
   -3.9019    5.7942   10.0033 C   0  0  0  0  0  0  0  0  0  0  0  0
   -4.1120    6.3607   11.2572 C   0  0  0  0  0  0  0  0  0  0  0  0
   -3.6818    5.6545   12.3427 C   0  0  0  0  0  0  0  0  0  0  0  0
   -3.0619    4.4241   12.1943 C   0  0  0  0  0  0  0  0  0  0  0  0
   -2.8521    3.8580   10.9585 C   0  0  0  0  0  0  0  0  0  0  0  0
   -2.2548    2.6523   10.7481 O   0  0  0  0  0  0  0  0  0  0  0  0
   -1.9915    1.6029   11.5714 C   0  0  0  0  0  0  0  0  0  0  0  0
   -0.7684    0.8481   11.1932 C   0  0  0  0  0  0  0  0  0  0  0  0
   -1.0949   -0.2974   10.3375 N   0  0  0  0  0  4  0  0  0  0  0  0
   -0.1840   -0.4166    9.2381 C   0  0  0  0  0  0  0  0  0  0  0  0
    0.7102   -1.6426    9.4752 C   0  0  1  0  0  0  0  0  0  0  0  0
    1.4118   -2.0270    8.2249 C   0  0  0  0  0  0  0  0  0  0  0  0
    1.1332   -3.1865    7.6093 O   0  0  0  0  0  0  0  0  0  0  0  0
    1.0373   -3.7648    6.4215 C   0  0  0  0  0  0  0  0  0  0  0  0
    0.3518   -3.2633    5.3431 C   0  0  0  0  0  0  0  0  0  0  0  0
    0.3049   -3.9442    4.1311 C   0  0  0  0  0  0  0  0  0  0  0  0
    0.9648   -5.1491    4.0216 C   0  0  0  0  0  0  0  0  0  0  0  0
    1.6649   -5.6865    5.0846 C   0  0  0  0  0  0  0  0  0  0  0  0
    1.6926   -4.9958    6.2585 C   0  0  0  0  0  0  0  0  0  0  0  0
    2.4613   -5.7639    7.1414 C   0  0  0  0  0  0  0  0  0  0  0  0
    2.8400   -5.5903    8.4534 C   0  0  0  0  0  0  0  0  0  0  0  0
    3.6235   -6.5260    9.1091 C   0  0  0  0  0  0  0  0  0  0  0  0
    4.0333   -7.6545    8.4362 C   0  0  0  0  0  0  0  0  0  0  0  0
    3.6710   -7.8502    7.1343 C   0  0  0  0  0  0  0  0  0  0  0  0
    2.8837   -6.9010    6.4897 C   0  0  0  0  0  0  0  0  0  0  0  0
    2.3832   -6.8226    5.2442 N   0  0  0  0  0  0  0  0  0  0  0  0
    1.4575   -1.4610   10.5959 O   0  0  0  0  0  0  0  0  0  0  0  0
  1  2  1  0
  2  3  1  0
  3  4  2  0
  4  5  1  0
  5  6  2  0
  6  7  1  0
  7  8  2  0
  8  9  1  0
  9 10  1  0
 10 11  1  0
 11 12  1  0
 12 13  1  0
 13 14  1  0
 14 15  1  0
 15 16  1  0
 16 17  1  0
 17 18  2  0
 18 19  1  0
 19 20  2  0
 20 21  1  0
 21 22  2  0
 22 23  1  0
 23 24  2  0
 24 25  1  0
 25 26  2  0
 26 27  1  0
 27 28  2  0
 28 29  1  0
 14 30  1  1
  8  3  1  0
 22 17  1  0
 28 23  1  0
 29 21  1  0
M  CHG  1  12   1
M  END
$$$$
