
     RDKit          3D

 30 33  0  0  0  0  0  0  0  0999 V2000
    2.1987    0.0321   12.4563 C   0  0  0  0  0  0  0  0  0  0  0  0
    0.9240    0.3257   11.9075 O   0  0  0  0  0  0  0  0  0  0  0  0
    0.2545    1.4415   12.3290 C   0  0  0  0  0  0  0  0  0  0  0  0
    0.7370    2.2473   13.3190 C   0  0  0  0  0  0  0  0  0  0  0  0
    0.0603    3.3838   13.7521 C   0  0  0  0  0  0  0  0  0  0  0  0
   -1.1264    3.6748   13.1446 C   0  0  0  0  0  0  0  0  0  0  0  0
   -1.6305    2.8666   12.1382 C   0  0  0  0  0  0  0  0  0  0  0  0
   -0.9666    1.7428   11.7045 C   0  0  0  0  0  0  0  0  0  0  0  0
   -1.4067    0.9131   10.7183 O   0  0  0  0  0  0  0  0  0  0  0  0
   -2.5204    0.9251    9.9385 C   0  0  0  0  0  0  0  0  0  0  0  0
   -2.6371   -0.2660    9.0574 C   0  0  0  0  0  0  0  0  0  0  0  0
   -1.4813   -0.3791    8.1616 N   0  0  0  0  0  4  0  0  0  0  0  0
   -1.8497   -0.9090    6.8825 C   0  0  0  0  0  0  0  0  0  0  0  0
   -0.6481   -0.7780    5.9350 C   0  0  1  0  0  0  0  0  0  0  0  0
   -0.4082   -2.0543    5.2161 C   0  0  0  0  0  0  0  0  0  0  0  0
    0.1481   -3.1022    5.8435 O   0  0  0  0  0  0  0  0  0  0  0  0
    0.6424   -4.3164    5.6541 C   0  0  0  0  0  0  0  0  0  0  0  0
    0.9416   -4.8748    4.4363 C   0  0  0  0  0  0  0  0  0  0  0  0
    1.4577   -6.1624    4.3342 C   0  0  0  0  0  0  0  0  0  0  0  0
    1.6691   -6.8854    5.4884 C   0  0  0  0  0  0  0  0  0  0  0  0
    1.3800   -6.3579    6.7322 C   0  0  0  0  0  0  0  0  0  0  0  0
    0.8758   -5.0941    6.7995 C   0  0  0  0  0  0  0  0  0  0  0  0
    0.6823   -4.8267    8.1602 C   0  0  0  0  0  0  0  0  0  0  0  0
    0.2054   -3.7315    8.8443 C   0  0  0  0  0  0  0  0  0  0  0  0
    0.1146   -3.7264   10.2268 C   0  0  0  0  0  0  0  0  0  0  0  0
    0.5092   -4.8395   10.9336 C   0  0  0  0  0  0  0  0  0  0  0  0
    0.9858   -5.9386   10.2785 C   0  0  0  0  0  0  0  0  0  0  0  0
    1.0709   -5.9280    8.8896 C   0  0  0  0  0  0  0  0  0  0  0  0
    1.4888   -6.8386    7.9929 N   0  0  0  0  0  0  0  0  0  0  0  0
   -0.7617    0.3579    5.1972 O   0  0  0  0  0  0  0  0  0  0  0  0
  1  2  1  0
  2  3  1  0
  3  4  2  0
  4  5  1  0
  5  6  2  0
  6  7  1  0
  7  8  2  0
  8  9  1  0
  9 10  1  0
 10 11  1  0
 11 12  1  0
 12 13  1  0
 13 14  1  0
 14 15  1  0
 15 16  1  0
 16 17  1  0
 17 18  2  0
 18 19  1  0
 19 20  2  0
 20 21  1  0
 21 22  2  0
 22 23  1  0
 23 24  2  0
 24 25  1  0
 25 26  2  0
 26 27  1  0
 27 28  2  0
 28 29  1  0
 14 30  1  6
  8  3  1  0
 22 17  1  0
 28 23  1  0
 29 21  1  0
M  CHG  1  12   1
M  END
$$$$
