
     RDKit          3D

 30 33  0  0  0  0  0  0  0  0999 V2000
   -3.2255    5.1397   10.0979 C   0  0  0  0  0  0  0  0  0  0  0  0
   -2.4743    3.9988   10.4802 O   0  0  0  0  0  0  0  0  0  0  0  0
   -1.8506    3.9850   11.6974 C   0  0  0  0  0  0  0  0  0  0  0  0
   -1.9172    5.0406   12.5596 C   0  0  0  0  0  0  0  0  0  0  0  0
   -1.2845    5.0324   13.7993 C   0  0  0  0  0  0  0  0  0  0  0  0
   -0.5795    3.9132   14.1344 C   0  0  0  0  0  0  0  0  0  0  0  0
   -0.5015    2.8329   13.2701 C   0  0  0  0  0  0  0  0  0  0  0  0
   -1.1251    2.8338   12.0442 C   0  0  0  0  0  0  0  0  0  0  0  0
   -1.0901    1.8032   11.1546 O   0  0  0  0  0  0  0  0  0  0  0  0
   -1.7401    0.6099   11.1071 C   0  0  0  0  0  0  0  0  0  0  0  0
   -0.9891   -0.4427   10.3746 C   0  0  0  0  0  0  0  0  0  0  0  0
   -0.7720   -0.0632    8.9746 N   0  0  0  0  0  4  0  0  0  0  0  0
   -0.4898   -1.2021    8.1525 C   0  0  0  0  0  0  0  0  0  0  0  0
   -0.2022   -0.7147    6.7247 C   0  0  1  0  0  0  0  0  0  0  0  0
   -0.0516   -1.8661    5.8002 C   0  0  0  0  0  0  0  0  0  0  0  0
    0.7747   -2.8814    6.0961 O   0  0  0  0  0  0  0  0  0  0  0  0
    1.2191   -4.0523    5.6651 C   0  0  0  0  0  0  0  0  0  0  0  0
    0.9923   -4.5821    4.4192 C   0  0  0  0  0  0  0  0  0  0  0  0
    1.4997   -5.8248    4.0544 C   0  0  0  0  0  0  0  0  0  0  0  0
    2.2453   -6.5320    4.9727 C   0  0  0  0  0  0  0  0  0  0  0  0
    2.4947   -6.0324    6.2365 C   0  0  0  0  0  0  0  0  0  0  0  0
    1.9844   -4.8124    6.5639 C   0  0  0  0  0  0  0  0  0  0  0  0
    2.3888   -4.5648    7.8813 C   0  0  0  0  0  0  0  0  0  0  0  0
    2.1851   -3.5125    8.7450 C   0  0  0  0  0  0  0  0  0  0  0  0
    2.7093   -3.5184   10.0275 C   0  0  0  0  0  0  0  0  0  0  0  0
    3.4501   -4.5989   10.4492 C   0  0  0  0  0  0  0  0  0  0  0  0
    3.6666   -5.6553    9.6116 C   0  0  0  0  0  0  0  0  0  0  0  0
    3.1334   -5.6342    8.3264 C   0  0  0  0  0  0  0  0  0  0  0  0
    3.1782   -6.5065    7.3043 N   0  0  0  0  0  0  0  0  0  0  0  0
   -1.0799    0.2658    6.3845 O   0  0  0  0  0  0  0  0  0  0  0  0
  1  2  1  0
  2  3  1  0
  3  4  2  0
  4  5  1  0
  5  6  2  0
  6  7  1  0
  7  8  2  0
  8  9  1  0
  9 10  1  0
 10 11  1  0
 11 12  1  0
 12 13  1  0
 13 14  1  0
 14 15  1  0
 15 16  1  0
 16 17  1  0
 17 18  2  0
 18 19  1  0
 19 20  2  0
 20 21  1  0
 21 22  2  0
 22 23  1  0
 23 24  2  0
 24 25  1  0
 25 26  2  0
 26 27  1  0
 27 28  2  0
 28 29  1  0
 14 30  1  6
  8  3  1  0
 22 17  1  0
 28 23  1  0
 29 21  1  0
M  CHG  1  12   1
M  END
$$$$
