
     RDKit          3D

 30 33  0  0  0  0  0  0  0  0999 V2000
    2.0103   -0.0747   13.1807 C   0  0  0  0  0  0  0  0  0  0  0  0
    0.8390    0.3025   12.4751 O   0  0  0  0  0  0  0  0  0  0  0  0
    0.0228    1.2666   12.9994 C   0  0  0  0  0  0  0  0  0  0  0  0
    0.1740    1.7321   14.2732 C   0  0  0  0  0  0  0  0  0  0  0  0
   -0.6535    2.7129   14.8123 C   0  0  0  0  0  0  0  0  0  0  0  0
   -1.6427    3.2059   14.0120 C   0  0  0  0  0  0  0  0  0  0  0  0
   -1.8101    2.7436   12.7165 C   0  0  0  0  0  0  0  0  0  0  0  0
   -0.9954    1.7755   12.1771 C   0  0  0  0  0  0  0  0  0  0  0  0
   -1.1057    1.2848   10.9115 O   0  0  0  0  0  0  0  0  0  0  0  0
   -1.0286    1.8746    9.6889 C   0  0  0  0  0  0  0  0  0  0  0  0
   -1.5081    1.0055    8.5828 C   0  0  0  0  0  0  0  0  0  0  0  0
   -0.8213   -0.2904    8.5900 N   0  0  0  0  0  4  0  0  0  0  0  0
    0.0408   -0.4416    7.4557 C   0  0  0  0  0  0  0  0  0  0  0  0
   -0.7133   -1.2231    6.3697 C   0  0  1  0  0  0  0  0  0  0  0  0
   -0.5409   -2.6846    6.5631 C   0  0  0  0  0  0  0  0  0  0  0  0
    0.6137   -3.2887    6.2417 O   0  0  0  0  0  0  0  0  0  0  0  0
    1.1293   -4.3997    5.7375 C   0  0  0  0  0  0  0  0  0  0  0  0
    0.9463   -4.8536    4.4550 C   0  0  0  0  0  0  0  0  0  0  0  0
    1.5281   -6.0370    4.0127 C   0  0  0  0  0  0  0  0  0  0  0  0
    2.3038   -6.7630    4.8907 C   0  0  0  0  0  0  0  0  0  0  0  0
    2.5109   -6.3391    6.1893 C   0  0  0  0  0  0  0  0  0  0  0  0
    1.9278   -5.1758    6.5926 C   0  0  0  0  0  0  0  0  0  0  0  0
    2.3036   -4.9979    7.9296 C   0  0  0  0  0  0  0  0  0  0  0  0
    2.0306   -4.0214    8.8608 C   0  0  0  0  0  0  0  0  0  0  0  0
    2.5410   -4.0868   10.1471 C   0  0  0  0  0  0  0  0  0  0  0  0
    3.3385   -5.1502   10.5040 C   0  0  0  0  0  0  0  0  0  0  0  0
    3.6242   -6.1317    9.5988 C   0  0  0  0  0  0  0  0  0  0  0  0
    3.1039   -6.0516    8.3107 C   0  0  0  0  0  0  0  0  0  0  0  0
    3.2095   -6.8467    7.2316 N   0  0  0  0  0  0  0  0  0  0  0  0
   -1.9782   -0.7410    6.2461 O   0  0  0  0  0  0  0  0  0  0  0  0
  1  2  1  0
  2  3  1  0
  3  4  2  0
  4  5  1  0
  5  6  2  0
  6  7  1  0
  7  8  2  0
  8  9  1  0
  9 10  1  0
 10 11  1  0
 11 12  1  0
 12 13  1  0
 13 14  1  0
 14 15  1  0
 15 16  1  0
 16 17  1  0
 17 18  2  0
 18 19  1  0
 19 20  2  0
 20 21  1  0
 21 22  2  0
 22 23  1  0
 23 24  2  0
 24 25  1  0
 25 26  2  0
 26 27  1  0
 27 28  2  0
 28 29  1  0
 14 30  1  1
  8  3  1  0
 22 17  1  0
 28 23  1  0
 29 21  1  0
M  CHG  1  12   1
M  END
$$$$
