
     RDKit          3D

 30 33  0  0  0  0  0  0  0  0999 V2000
   -5.4931    0.5972   10.4769 C   0  0  0  0  0  0  0  0  0  0  0  0
   -4.1658    1.0825   10.5989 O   0  0  0  0  0  0  0  0  0  0  0  0
   -3.9559    2.3426   11.0875 C   0  0  0  0  0  0  0  0  0  0  0  0
   -4.9829    3.1459   11.4899 C   0  0  0  0  0  0  0  0  0  0  0  0
   -4.7756    4.4290   11.9878 C   0  0  0  0  0  0  0  0  0  0  0  0
   -3.4864    4.8701   12.0629 C   0  0  0  0  0  0  0  0  0  0  0  0
   -2.4322    4.0671   11.6579 C   0  0  0  0  0  0  0  0  0  0  0  0
   -2.6298    2.7980   11.1660 C   0  0  0  0  0  0  0  0  0  0  0  0
   -1.6368    1.9603   10.7577 O   0  0  0  0  0  0  0  0  0  0  0  0
   -0.2812    2.0579   10.7946 C   0  0  0  0  0  0  0  0  0  0  0  0
    0.4117    0.8829   10.2046 C   0  0  0  0  0  0  0  0  0  0  0  0
   -0.0779    0.6025    8.8508 N   0  0  0  0  0  4  0  0  0  0  0  0
    0.6857   -0.4279    8.2121 C   0  0  0  0  0  0  0  0  0  0  0  0
    0.0682   -0.7107    6.8345 C   0  0  1  0  0  0  0  0  0  0  0  0
   -0.4318   -2.1064    6.7629 C   0  0  0  0  0  0  0  0  0  0  0  0
    0.4162   -3.1444    6.8311 O   0  0  0  0  0  0  0  0  0  0  0  0
    0.8442   -4.2139    6.1774 C   0  0  0  0  0  0  0  0  0  0  0  0
    0.4892   -4.5618    4.8978 C   0  0  0  0  0  0  0  0  0  0  0  0
    0.9897   -5.7089    4.2910 C   0  0  0  0  0  0  0  0  0  0  0  0
    1.8609   -6.5076    4.9999 C   0  0  0  0  0  0  0  0  0  0  0  0
    2.2414   -6.1912    6.2898 C   0  0  0  0  0  0  0  0  0  0  0  0
    1.7343   -5.0609    6.8568 C   0  0  0  0  0  0  0  0  0  0  0  0
    2.2831   -4.9935    8.1431 C   0  0  0  0  0  0  0  0  0  0  0  0
    2.1488   -4.0939    9.1764 C   0  0  0  0  0  0  0  0  0  0  0  0
    2.8206   -4.2657   10.3758 C   0  0  0  0  0  0  0  0  0  0  0  0
    3.6405   -5.3588   10.5402 C   0  0  0  0  0  0  0  0  0  0  0  0
    3.7906   -6.2657    9.5305 C   0  0  0  0  0  0  0  0  0  0  0  0
    3.1090   -6.0790    8.3317 C   0  0  0  0  0  0  0  0  0  0  0  0
    3.0611   -6.7851    7.1885 N   0  0  0  0  0  0  0  0  0  0  0  0
   -0.7858    0.2909    6.4953 O   0  0  0  0  0  0  0  0  0  0  0  0
  1  2  1  0
  2  3  1  0
  3  4  2  0
  4  5  1  0
  5  6  2  0
  6  7  1  0
  7  8  2  0
  8  9  1  0
  9 10  1  0
 10 11  1  0
 11 12  1  0
 12 13  1  0
 13 14  1  0
 14 15  1  0
 15 16  1  0
 16 17  1  0
 17 18  2  0
 18 19  1  0
 19 20  2  0
 20 21  1  0
 21 22  2  0
 22 23  1  0
 23 24  2  0
 24 25  1  0
 25 26  2  0
 26 27  1  0
 27 28  2  0
 28 29  1  0
 14 30  1  1
  8  3  1  0
 22 17  1  0
 28 23  1  0
 29 21  1  0
M  CHG  1  12   1
M  END
$$$$
