
     RDKit          3D

 30 33  0  0  0  0  0  0  0  0999 V2000
   -4.5004    5.4036    8.2453 C   0  0  0  0  0  0  0  0  0  0  0  0
   -3.6488    4.4209    8.8121 O   0  0  0  0  0  0  0  0  0  0  0  0
   -3.2016    4.5819   10.0946 C   0  0  0  0  0  0  0  0  0  0  0  0
   -3.0932    5.8111   10.6771 C   0  0  0  0  0  0  0  0  0  0  0  0
   -2.6388    5.9812   11.9816 C   0  0  0  0  0  0  0  0  0  0  0  0
   -2.2966    4.8576   12.6763 C   0  0  0  0  0  0  0  0  0  0  0  0
   -2.4003    3.6021   12.0993 C   0  0  0  0  0  0  0  0  0  0  0  0
   -2.8496    3.4267   10.8113 C   0  0  0  0  0  0  0  0  0  0  0  0
   -2.9785    2.2209   10.1914 O   0  0  0  0  0  0  0  0  0  0  0  0
   -2.7511    0.9466   10.6073 C   0  0  0  0  0  0  0  0  0  0  0  0
   -3.0569   -0.0756    9.5728 C   0  0  0  0  0  0  0  0  0  0  0  0
   -1.9516   -1.0282    9.4247 N   0  0  0  0  0  4  0  0  0  0  0  0
   -1.5452   -1.1627    8.0575 C   0  0  0  0  0  0  0  0  0  0  0  0
   -0.0191   -1.0065    7.9839 C   0  0  1  0  0  0  0  0  0  0  0  0
    0.5278   -1.7583    6.8268 C   0  0  0  0  0  0  0  0  0  0  0  0
    0.7406   -3.0811    6.9054 O   0  0  0  0  0  0  0  0  0  0  0  0
    1.0054   -4.1611    6.1859 C   0  0  0  0  0  0  0  0  0  0  0  0
    0.5024   -4.4312    4.9376 C   0  0  0  0  0  0  0  0  0  0  0  0
    0.8364   -5.5966    4.2558 C   0  0  0  0  0  0  0  0  0  0  0  0
    1.6923   -6.4942    4.8568 C   0  0  0  0  0  0  0  0  0  0  0  0
    2.2187   -6.2580    6.1122 C   0  0  0  0  0  0  0  0  0  0  0  0
    1.8730   -5.1074    6.7545 C   0  0  0  0  0  0  0  0  0  0  0  0
    2.5429   -5.1341    7.9837 C   0  0  0  0  0  0  0  0  0  0  0  0
    2.5889   -4.2626    9.0483 C   0  0  0  0  0  0  0  0  0  0  0  0
    3.3506   -4.5354   10.1730 C   0  0  0  0  0  0  0  0  0  0  0  0
    4.0778   -5.7024   10.2293 C   0  0  0  0  0  0  0  0  0  0  0  0
    4.0491   -6.5834    9.1865 C   0  0  0  0  0  0  0  0  0  0  0  0
    3.2791   -6.2950    8.0638 C   0  0  0  0  0  0  0  0  0  0  0  0
    3.0601   -6.9537    6.9124 N   0  0  0  0  0  0  0  0  0  0  0  0
    0.3189    0.3040    8.1102 O   0  0  0  0  0  0  0  0  0  0  0  0
  1  2  1  0
  2  3  1  0
  3  4  2  0
  4  5  1  0
  5  6  2  0
  6  7  1  0
  7  8  2  0
  8  9  1  0
  9 10  1  0
 10 11  1  0
 11 12  1  0
 12 13  1  0
 13 14  1  0
 14 15  1  0
 15 16  1  0
 16 17  1  0
 17 18  2  0
 18 19  1  0
 19 20  2  0
 20 21  1  0
 21 22  2  0
 22 23  1  0
 23 24  2  0
 24 25  1  0
 25 26  2  0
 26 27  1  0
 27 28  2  0
 28 29  1  0
 14 30  1  6
  8  3  1  0
 22 17  1  0
 28 23  1  0
 29 21  1  0
M  CHG  1  12   1
M  END
$$$$
