
     RDKit          3D

 30 33  0  0  0  0  0  0  0  0999 V2000
    1.0802    0.5262   13.6966 C   0  0  0  0  0  0  0  0  0  0  0  0
    0.3009    1.1627   12.6969 O   0  0  0  0  0  0  0  0  0  0  0  0
    0.1558    2.5224   12.7259 C   0  0  0  0  0  0  0  0  0  0  0  0
    0.8344    3.3065   13.6129 C   0  0  0  0  0  0  0  0  0  0  0  0
    0.6909    4.6905   13.6471 C   0  0  0  0  0  0  0  0  0  0  0  0
   -0.1680    5.2527   12.7482 C   0  0  0  0  0  0  0  0  0  0  0  0
   -0.8652    4.4707   11.8412 C   0  0  0  0  0  0  0  0  0  0  0  0
   -0.7273    3.1029   11.8010 C   0  0  0  0  0  0  0  0  0  0  0  0
   -1.3794    2.2820   10.9318 O   0  0  0  0  0  0  0  0  0  0  0  0
   -2.2227    2.5287    9.8943 C   0  0  0  0  0  0  0  0  0  0  0  0
   -2.6707    1.2979    9.1920 C   0  0  0  0  0  0  0  0  0  0  0  0
   -1.5925    0.7302    8.3758 N   0  0  0  0  0  4  0  0  0  0  0  0
   -1.5784   -0.7013    8.4344 C   0  0  0  0  0  0  0  0  0  0  0  0
   -0.2386   -1.2001    7.8733 C   0  0  1  0  0  0  0  0  0  0  0  0
    0.3705   -2.1995    8.7862 C   0  0  0  0  0  0  0  0  0  0  0  0
    0.7797   -3.3916    8.3253 O   0  0  0  0  0  0  0  0  0  0  0  0
    1.3148   -4.5471    8.6898 C   0  0  0  0  0  0  0  0  0  0  0  0
    1.5270   -4.9552    9.9832 C   0  0  0  0  0  0  0  0  0  0  0  0
    2.0987   -6.1901   10.2712 C   0  0  0  0  0  0  0  0  0  0  0  0
    2.4569   -7.0147    9.2266 C   0  0  0  0  0  0  0  0  0  0  0  0
    2.2597   -6.6390    7.9117 C   0  0  0  0  0  0  0  0  0  0  0  0
    1.6973   -5.4236    7.6618 C   0  0  0  0  0  0  0  0  0  0  0  0
    1.6196   -5.3124    6.2683 C   0  0  0  0  0  0  0  0  0  0  0  0
    1.1513   -4.3272    5.4286 C   0  0  0  0  0  0  0  0  0  0  0  0
    1.1911   -4.4725    4.0514 C   0  0  0  0  0  0  0  0  0  0  0  0
    1.7098   -5.6260    3.5087 C   0  0  0  0  0  0  0  0  0  0  0  0
    2.1808   -6.6182    4.3200 C   0  0  0  0  0  0  0  0  0  0  0  0
    2.1337   -6.4571    5.7014 C   0  0  0  0  0  0  0  0  0  0  0  0
    2.5129   -7.2408    6.7260 N   0  0  0  0  0  0  0  0  0  0  0  0
   -0.3811   -1.5358    6.5639 O   0  0  0  0  0  0  0  0  0  0  0  0
  1  2  1  0
  2  3  1  0
  3  4  2  0
  4  5  1  0
  5  6  2  0
  6  7  1  0
  7  8  2  0
  8  9  1  0
  9 10  1  0
 10 11  1  0
 11 12  1  0
 12 13  1  0
 13 14  1  0
 14 15  1  0
 15 16  1  0
 16 17  1  0
 17 18  2  0
 18 19  1  0
 19 20  2  0
 20 21  1  0
 21 22  2  0
 22 23  1  0
 23 24  2  0
 24 25  1  0
 25 26  2  0
 26 27  1  0
 27 28  2  0
 28 29  1  0
 14 30  1  6
  8  3  1  0
 22 17  1  0
 28 23  1  0
 29 21  1  0
M  CHG  1  12   1
M  END
$$$$
