
     RDKit          3D

 30 33  0  0  0  0  0  0  0  0999 V2000
   -3.3818    4.4430    9.2723 C   0  0  0  0  0  0  0  0  0  0  0  0
   -2.5914    3.5764   10.0700 O   0  0  0  0  0  0  0  0  0  0  0  0
   -2.1173    4.0209   11.2735 C   0  0  0  0  0  0  0  0  0  0  0  0
   -2.3760    5.2782   11.7364 C   0  0  0  0  0  0  0  0  0  0  0  0
   -1.8964    5.7361   12.9602 C   0  0  0  0  0  0  0  0  0  0  0  0
   -1.1426    4.8718   13.6996 C   0  0  0  0  0  0  0  0  0  0  0  0
   -0.8702    3.5919   13.2437 C   0  0  0  0  0  0  0  0  0  0  0  0
   -1.3419    3.1326   12.0361 C   0  0  0  0  0  0  0  0  0  0  0  0
   -1.1134    1.8863   11.5367 O   0  0  0  0  0  0  0  0  0  0  0  0
   -1.5558    0.6548   11.9057 C   0  0  0  0  0  0  0  0  0  0  0  0
   -0.9120   -0.4536   11.1538 C   0  0  0  0  0  0  0  0  0  0  0  0
   -1.2255   -0.3770    9.7231 N   0  0  0  0  0  4  0  0  0  0  0  0
   -0.6374   -1.4591    8.9911 C   0  0  0  0  0  0  0  0  0  0  0  0
   -0.8786   -1.2233    7.4927 C   0  0  1  0  0  0  0  0  0  0  0  0
    0.2619   -1.7364    6.6930 C   0  0  0  0  0  0  0  0  0  0  0  0
    0.6652   -3.0111    6.8107 O   0  0  0  0  0  0  0  0  0  0  0  0
    0.9414   -4.1079    6.1216 C   0  0  0  0  0  0  0  0  0  0  0  0
    0.5962   -4.3359    4.8127 C   0  0  0  0  0  0  0  0  0  0  0  0
    0.9289   -5.5234    4.1694 C   0  0  0  0  0  0  0  0  0  0  0  0
    1.6205   -6.4866    4.8717 C   0  0  0  0  0  0  0  0  0  0  0  0
    1.9852   -6.2943    6.1904 C   0  0  0  0  0  0  0  0  0  0  0  0
    1.6452   -5.1206    6.7928 C   0  0  0  0  0  0  0  0  0  0  0  0
    2.1345   -5.2017    8.1021 C   0  0  0  0  0  0  0  0  0  0  0  0
    2.1010   -4.3378    9.1733 C   0  0  0  0  0  0  0  0  0  0  0  0
    2.6762   -4.6714   10.3888 C   0  0  0  0  0  0  0  0  0  0  0  0
    3.2949   -5.8924   10.5308 C   0  0  0  0  0  0  0  0  0  0  0  0
    3.3417   -6.7673    9.4834 C   0  0  0  0  0  0  0  0  0  0  0  0
    2.7593   -6.4174    8.2689 C   0  0  0  0  0  0  0  0  0  0  0  0
    2.6507   -7.0554    7.0904 N   0  0  0  0  0  0  0  0  0  0  0  0
   -2.1298   -1.6329    7.1549 O   0  0  0  0  0  0  0  0  0  0  0  0
  1  2  1  0
  2  3  1  0
  3  4  2  0
  4  5  1  0
  5  6  2  0
  6  7  1  0
  7  8  2  0
  8  9  1  0
  9 10  1  0
 10 11  1  0
 11 12  1  0
 12 13  1  0
 13 14  1  0
 14 15  1  0
 15 16  1  0
 16 17  1  0
 17 18  2  0
 18 19  1  0
 19 20  2  0
 20 21  1  0
 21 22  2  0
 22 23  1  0
 23 24  2  0
 24 25  1  0
 25 26  2  0
 26 27  1  0
 27 28  2  0
 28 29  1  0
 14 30  1  6
  8  3  1  0
 22 17  1  0
 28 23  1  0
 29 21  1  0
M  CHG  1  12   1
M  END
$$$$
