
     RDKit          3D

 30 33  0  0  0  0  0  0  0  0999 V2000
   -4.0894    5.8036   11.3875 C   0  0  0  0  0  0  0  0  0  0  0  0
   -3.1552    4.7498   11.2176 O   0  0  0  0  0  0  0  0  0  0  0  0
   -2.2595    4.4818   12.2160 C   0  0  0  0  0  0  0  0  0  0  0  0
   -2.1864    5.2392   13.3487 C   0  0  0  0  0  0  0  0  0  0  0  0
   -1.2771    4.9714   14.3679 C   0  0  0  0  0  0  0  0  0  0  0  0
   -0.4420    3.9059   14.1971 C   0  0  0  0  0  0  0  0  0  0  0  0
   -0.5030    3.1270   13.0526 C   0  0  0  0  0  0  0  0  0  0  0  0
   -1.3997    3.3852   12.0422 C   0  0  0  0  0  0  0  0  0  0  0  0
   -1.5117    2.6550   10.8982 O   0  0  0  0  0  0  0  0  0  0  0  0
   -0.6292    1.8772   10.2162 C   0  0  0  0  0  0  0  0  0  0  0  0
   -1.2380    1.1668    9.0615 C   0  0  0  0  0  0  0  0  0  0  0  0
   -0.2545    0.3163    8.3830 N   0  0  0  0  0  4  0  0  0  0  0  0
   -0.3478   -1.0485    8.8090 C   0  0  0  0  0  0  0  0  0  0  0  0
   -1.0226   -1.8628    7.6953 C   0  0  1  0  0  0  0  0  0  0  0  0
   -0.0072   -2.4182    6.7659 C   0  0  0  0  0  0  0  0  0  0  0  0
    0.3462   -3.7115    6.8274 O   0  0  0  0  0  0  0  0  0  0  0  0
    0.9864   -4.6720    6.1779 C   0  0  0  0  0  0  0  0  0  0  0  0
    0.8300   -4.9775    4.8488 C   0  0  0  0  0  0  0  0  0  0  0  0
    1.5468   -6.0086    4.2508 C   0  0  0  0  0  0  0  0  0  0  0  0
    2.4312   -6.7341    5.0196 C   0  0  0  0  0  0  0  0  0  0  0  0
    2.6157   -6.4570    6.3605 C   0  0  0  0  0  0  0  0  0  0  0  0
    1.8993   -5.4408    6.9174 C   0  0  0  0  0  0  0  0  0  0  0  0
    2.2835   -5.3885    8.2628 C   0  0  0  0  0  0  0  0  0  0  0  0
    1.9119   -4.5835    9.3158 C   0  0  0  0  0  0  0  0  0  0  0  0
    2.4594   -4.7464   10.5780 C   0  0  0  0  0  0  0  0  0  0  0  0
    3.3952   -5.7339   10.7860 C   0  0  0  0  0  0  0  0  0  0  0  0
    3.7806   -6.5457    9.7579 C   0  0  0  0  0  0  0  0  0  0  0  0
    3.2214   -6.3693    8.4959 C   0  0  0  0  0  0  0  0  0  0  0  0
    3.4000   -6.9989    7.3214 N   0  0  0  0  0  0  0  0  0  0  0  0
   -1.9310   -2.7191    8.2331 O   0  0  0  0  0  0  0  0  0  0  0  0
  1  2  1  0
  2  3  1  0
  3  4  2  0
  4  5  1  0
  5  6  2  0
  6  7  1  0
  7  8  2  0
  8  9  1  0
  9 10  1  0
 10 11  1  0
 11 12  1  0
 12 13  1  0
 13 14  1  0
 14 15  1  0
 15 16  1  0
 16 17  1  0
 17 18  2  0
 18 19  1  0
 19 20  2  0
 20 21  1  0
 21 22  2  0
 22 23  1  0
 23 24  2  0
 24 25  1  0
 25 26  2  0
 26 27  1  0
 27 28  2  0
 28 29  1  0
 14 30  1  1
  8  3  1  0
 22 17  1  0
 28 23  1  0
 29 21  1  0
M  CHG  1  12   1
M  END
$$$$
