
     RDKit          3D

 30 33  0  0  0  0  0  0  0  0999 V2000
   -2.7014    4.8624    7.3485 C   0  0  0  0  0  0  0  0  0  0  0  0
   -2.2529    4.3531    8.5942 O   0  0  0  0  0  0  0  0  0  0  0  0
   -2.9164    4.7021    9.7381 C   0  0  0  0  0  0  0  0  0  0  0  0
   -3.6212    5.8659    9.8426 C   0  0  0  0  0  0  0  0  0  0  0  0
   -4.2983    6.2264   11.0040 C   0  0  0  0  0  0  0  0  0  0  0  0
   -4.2347    5.3629   12.0587 C   0  0  0  0  0  0  0  0  0  0  0  0
   -3.5230    4.1774   11.9692 C   0  0  0  0  0  0  0  0  0  0  0  0
   -2.8526    3.8144   10.8244 C   0  0  0  0  0  0  0  0  0  0  0  0
   -2.1416    2.6628   10.6731 O   0  0  0  0  0  0  0  0  0  0  0  0
   -1.7894    1.6809   11.5451 C   0  0  0  0  0  0  0  0  0  0  0  0
   -0.9173    0.6399   10.9413 C   0  0  0  0  0  0  0  0  0  0  0  0
   -1.5480    0.0375    9.7622 N   0  0  0  0  0  4  0  0  0  0  0  0
   -0.8969   -1.1782    9.3736 C   0  0  0  0  0  0  0  0  0  0  0  0
    0.5413   -0.8476    8.9480 C   0  0  1  0  0  0  0  0  0  0  0  0
    1.4904   -1.8515    9.4906 C   0  0  0  0  0  0  0  0  0  0  0  0
    1.7325   -2.9950    8.8311 O   0  0  0  0  0  0  0  0  0  0  0  0
    2.4374   -4.1158    8.8672 C   0  0  0  0  0  0  0  0  0  0  0  0
    3.2265   -4.5286    9.9118 C   0  0  0  0  0  0  0  0  0  0  0  0
    3.9343   -5.7248    9.8595 C   0  0  0  0  0  0  0  0  0  0  0  0
    3.8344   -6.5055    8.7281 C   0  0  0  0  0  0  0  0  0  0  0  0
    3.0510   -6.1236    7.6561 C   0  0  0  0  0  0  0  0  0  0  0  0
    2.3695   -4.9467    7.7374 C   0  0  0  0  0  0  0  0  0  0  0  0
    1.6724   -4.8190    6.5299 C   0  0  0  0  0  0  0  0  0  0  0  0
    0.8248   -3.8558    6.0313 C   0  0  0  0  0  0  0  0  0  0  0  0
    0.2543   -3.9759    4.7744 C   0  0  0  0  0  0  0  0  0  0  0  0
    0.5398   -5.0814    4.0060 C   0  0  0  0  0  0  0  0  0  0  0  0
    1.3776   -6.0509    4.4777 C   0  0  0  0  0  0  0  0  0  0  0  0
    1.9426   -5.9156    5.7422 C   0  0  0  0  0  0  0  0  0  0  0  0
    2.7819   -6.6870    6.4551 N   0  0  0  0  0  0  0  0  0  0  0  0
    0.5815   -0.5875    7.6144 O   0  0  0  0  0  0  0  0  0  0  0  0
  1  2  1  0
  2  3  1  0
  3  4  2  0
  4  5  1  0
  5  6  2  0
  6  7  1  0
  7  8  2  0
  8  9  1  0
  9 10  1  0
 10 11  1  0
 11 12  1  0
 12 13  1  0
 13 14  1  0
 14 15  1  0
 15 16  1  0
 16 17  1  0
 17 18  2  0
 18 19  1  0
 19 20  2  0
 20 21  1  0
 21 22  2  0
 22 23  1  0
 23 24  2  0
 24 25  1  0
 25 26  2  0
 26 27  1  0
 27 28  2  0
 28 29  1  0
 14 30  1  6
  8  3  1  0
 22 17  1  0
 28 23  1  0
 29 21  1  0
M  CHG  1  12   1
M  END
$$$$
