
     RDKit          3D

 30 33  0  0  0  0  0  0  0  0999 V2000
   -3.5340    4.4549    8.7958 C   0  0  0  0  0  0  0  0  0  0  0  0
   -2.7538    3.4892    9.4820 O   0  0  0  0  0  0  0  0  0  0  0  0
   -2.4083    3.7118   10.7865 C   0  0  0  0  0  0  0  0  0  0  0  0
   -2.5295    4.9391   11.3706 C   0  0  0  0  0  0  0  0  0  0  0  0
   -2.1796    5.1718   12.6974 C   0  0  0  0  0  0  0  0  0  0  0  0
   -1.7005    4.1132   13.4129 C   0  0  0  0  0  0  0  0  0  0  0  0
   -1.5707    2.8607   12.8346 C   0  0  0  0  0  0  0  0  0  0  0  0
   -1.9157    2.6234   11.5245 C   0  0  0  0  0  0  0  0  0  0  0  0
   -1.8164    1.4163   10.9019 O   0  0  0  0  0  0  0  0  0  0  0  0
   -2.4296    0.2215   11.1140 C   0  0  0  0  0  0  0  0  0  0  0  0
   -1.7719   -0.9123   10.4135 C   0  0  0  0  0  0  0  0  0  0  0  0
   -1.1903   -0.4825    9.1376 N   0  0  0  0  0  4  0  0  0  0  0  0
   -1.0926   -1.5664    8.2058 C   0  0  0  0  0  0  0  0  0  0  0  0
   -0.4632   -1.0393    6.9077 C   0  0  1  0  0  0  0  0  0  0  0  0
   -0.1799   -2.1573    5.9732 C   0  0  0  0  0  0  0  0  0  0  0  0
    0.3867   -3.2922    6.4115 O   0  0  0  0  0  0  0  0  0  0  0  0
    0.7568   -4.5090    6.0414 C   0  0  0  0  0  0  0  0  0  0  0  0
    0.4504   -5.1064    4.8441 C   0  0  0  0  0  0  0  0  0  0  0  0
    0.8829   -6.3934    4.5423 C   0  0  0  0  0  0  0  0  0  0  0  0
    1.6352   -7.0756    5.4740 C   0  0  0  0  0  0  0  0  0  0  0  0
    1.9635   -6.5083    6.6902 C   0  0  0  0  0  0  0  0  0  0  0  0
    1.5254   -5.2460    6.9564 C   0  0  0  0  0  0  0  0  0  0  0  0
    1.9991   -4.9340    8.2365 C   0  0  0  0  0  0  0  0  0  0  0  0
    1.8830   -3.8193    9.0358 C   0  0  0  0  0  0  0  0  0  0  0  0
    2.4630   -3.7681   10.2930 C   0  0  0  0  0  0  0  0  0  0  0  0
    3.1711   -4.8541   10.7548 C   0  0  0  0  0  0  0  0  0  0  0  0
    3.3009   -5.9718    9.9812 C   0  0  0  0  0  0  0  0  0  0  0  0
    2.7124   -6.0076    8.7207 C   0  0  0  0  0  0  0  0  0  0  0  0
    2.6712   -6.9453    7.7580 N   0  0  0  0  0  0  0  0  0  0  0  0
   -1.1809    0.0162    6.4403 O   0  0  0  0  0  0  0  0  0  0  0  0
  1  2  1  0
  2  3  1  0
  3  4  2  0
  4  5  1  0
  5  6  2  0
  6  7  1  0
  7  8  2  0
  8  9  1  0
  9 10  1  0
 10 11  1  0
 11 12  1  0
 12 13  1  0
 13 14  1  0
 14 15  1  0
 15 16  1  0
 16 17  1  0
 17 18  2  0
 18 19  1  0
 19 20  2  0
 20 21  1  0
 21 22  2  0
 22 23  1  0
 23 24  2  0
 24 25  1  0
 25 26  2  0
 26 27  1  0
 27 28  2  0
 28 29  1  0
 14 30  1  6
  8  3  1  0
 22 17  1  0
 28 23  1  0
 29 21  1  0
M  CHG  1  12   1
M  END
$$$$
