
     RDKit          3D

 30 33  0  0  0  0  0  0  0  0999 V2000
   -2.0517    5.3031    8.3212 C   0  0  0  0  0  0  0  0  0  0  0  0
   -1.9458    4.1303    9.1120 O   0  0  0  0  0  0  0  0  0  0  0  0
   -2.5348    4.0994   10.3460 C   0  0  0  0  0  0  0  0  0  0  0  0
   -3.1044    5.2055   10.9067 C   0  0  0  0  0  0  0  0  0  0  0  0
   -3.7052    5.1802   12.1620 C   0  0  0  0  0  0  0  0  0  0  0  0
   -3.7074    3.9907   12.8306 C   0  0  0  0  0  0  0  0  0  0  0  0
   -3.1329    2.8584   12.2756 C   0  0  0  0  0  0  0  0  0  0  0  0
   -2.5387    2.8760   11.0353 C   0  0  0  0  0  0  0  0  0  0  0  0
   -1.9629    1.7976   10.4350 O   0  0  0  0  0  0  0  0  0  0  0  0
   -1.7630    0.5171   10.8458 C   0  0  0  0  0  0  0  0  0  0  0  0
   -0.9701   -0.2941    9.8856 C   0  0  0  0  0  0  0  0  0  0  0  0
   -1.6840   -0.4609    8.6154 N   0  0  0  0  0  4  0  0  0  0  0  0
   -1.0579   -1.4407    7.7783 C   0  0  0  0  0  0  0  0  0  0  0  0
   -0.1743   -0.7146    6.7531 C   0  0  1  0  0  0  0  0  0  0  0  0
    0.8294   -1.6443    6.1773 C   0  0  0  0  0  0  0  0  0  0  0  0
    0.7659   -2.9621    6.4232 O   0  0  0  0  0  0  0  0  0  0  0  0
    0.9691   -4.1559    5.8866 C   0  0  0  0  0  0  0  0  0  0  0  0
    0.4449   -4.5953    4.6965 C   0  0  0  0  0  0  0  0  0  0  0  0
    0.7128   -5.8709    4.2110 C   0  0  0  0  0  0  0  0  0  0  0  0
    1.5239   -6.7048    4.9501 C   0  0  0  0  0  0  0  0  0  0  0  0
    2.0697   -6.2989    6.1528 C   0  0  0  0  0  0  0  0  0  0  0  0
    1.7890   -5.0436    6.6016 C   0  0  0  0  0  0  0  0  0  0  0  0
    2.4641   -4.9086    7.8208 C   0  0  0  0  0  0  0  0  0  0  0  0
    2.5624   -3.8816    8.7321 C   0  0  0  0  0  0  0  0  0  0  0  0
    3.3156   -4.0107    9.8878 C   0  0  0  0  0  0  0  0  0  0  0  0
    3.9807   -5.1906   10.1321 C   0  0  0  0  0  0  0  0  0  0  0  0
    3.8992   -6.2244    9.2439 C   0  0  0  0  0  0  0  0  0  0  0  0
    3.1386   -6.0790    8.0876 C   0  0  0  0  0  0  0  0  0  0  0  0
    2.8781   -6.9011    7.0561 N   0  0  0  0  0  0  0  0  0  0  0  0
   -0.9508   -0.0026    5.8942 O   0  0  0  0  0  0  0  0  0  0  0  0
  1  2  1  0
  2  3  1  0
  3  4  2  0
  4  5  1  0
  5  6  2  0
  6  7  1  0
  7  8  2  0
  8  9  1  0
  9 10  1  0
 10 11  1  0
 11 12  1  0
 12 13  1  0
 13 14  1  0
 14 15  1  0
 15 16  1  0
 16 17  1  0
 17 18  2  0
 18 19  1  0
 19 20  2  0
 20 21  1  0
 21 22  2  0
 22 23  1  0
 23 24  2  0
 24 25  1  0
 25 26  2  0
 26 27  1  0
 27 28  2  0
 28 29  1  0
 14 30  1  6
  8  3  1  0
 22 17  1  0
 28 23  1  0
 29 21  1  0
M  CHG  1  12   1
M  END
$$$$
