
     RDKit          3D

 28 32  0  0  0  0  0  0  0  0999 V2000
   -1.0024   -3.7102   10.4519 C   0  0  0  0  0  0  0  0  0  0  0  0
    0.1193   -3.3971    9.5095 C   0  0  0  0  0  0  0  0  0  0  0  0
    1.3247   -3.0904   10.4210 C   0  0  0  0  0  0  0  0  0  0  0  0
    2.5583   -3.4131    9.6897 C   0  0  0  0  0  0  0  0  0  0  0  0
    2.9122   -2.3872    8.6245 C   0  0  0  0  0  0  0  0  0  0  0  0
    2.3319   -1.0959    8.9060 N   0  0  0  0  0  0  0  0  0  0  0  0
    2.2170   -0.7484   10.3148 C   0  0  0  0  0  0  0  0  0  0  0  0
    1.1975   -1.6847   10.9059 C   0  0  0  0  0  0  0  0  0  0  0  0
    1.8843   -0.1927    7.8850 C   0  0  0  0  0  0  0  0  0  0  0  0
    0.9522    0.7816    8.0602 N   0  0  0  0  0  0  0  0  0  0  0  0
    0.7775    1.4342    6.9072 C   0  0  0  0  0  0  0  0  0  0  0  0
   -0.0307    2.4977    6.5037 C   0  0  0  0  0  0  0  0  0  0  0  0
   -0.0007    2.9756    5.2059 C   0  0  0  0  0  0  0  0  0  0  0  0
    0.8478    2.3850    4.2931 C   0  0  0  0  0  0  0  0  0  0  0  0
    1.6491    1.3254    4.7069 C   0  0  0  0  0  0  0  0  0  0  0  0
    1.6254    0.8421    6.0008 C   0  0  0  0  0  0  0  0  0  0  0  0
    2.2525   -0.1136    6.6421 O   0  0  0  0  0  0  0  0  0  0  0  0
    1.0693   -3.9968   11.4923 N   0  0  0  0  0  0  0  0  0  0  0  0
   -0.3195   -3.8285   11.8097 C   0  0  0  0  0  0  0  0  0  0  0  0
    2.1208   -3.9565   12.8118 S   0  0  0  0  0  6  0  0  0  0  0  0
    1.7002   -4.9092   13.9214 O   0  0  0  0  0  0  0  0  0  0  0  0
    2.2196   -2.6084   13.4639 O   0  0  0  0  0  0  0  0  0  0  0  0
    3.7280   -4.3876   12.2957 C   0  0  0  0  0  0  0  0  0  0  0  0
    3.9446   -5.6581   11.7724 C   0  0  0  0  0  0  0  0  0  0  0  0
    5.1842   -6.0703   11.3487 C   0  0  0  0  0  0  0  0  0  0  0  0
    6.2632   -5.2262   11.4300 C   0  0  0  0  0  0  0  0  0  0  0  0
    6.0594   -3.9594   11.9480 C   0  0  0  0  0  0  0  0  0  0  0  0
    4.8066   -3.5481   12.3750 C   0  0  0  0  0  0  0  0  0  0  0  0
  1  2  1  0
  2  3  1  0
  3  4  1  0
  4  5  1  0
  5  6  1  0
  6  7  1  0
  7  8  1  0
  6  9  1  0
  9 10  2  0
 10 11  1  0
 11 12  2  0
 12 13  1  0
 13 14  2  0
 14 15  1  0
 15 16  2  0
 16 17  1  0
  3 18  1  0
 18 19  1  0
 18 20  1  0
 20 21  2  0
 20 22  2  0
 20 23  1  0
 23 24  2  0
 24 25  1  0
 25 26  2  0
 26 27  1  0
 27 28  2  0
 19  1  1  0
  8  3  1  0
 17  9  1  0
 16 11  1  0
 28 23  1  0
M  END
$$$$
