
     RDKit          3D

 28 32  0  0  0  0  0  0  0  0999 V2000
   -1.9076   -4.1353    9.8590 C   0  0  0  0  0  0  0  0  0  0  0  0
   -0.7026   -3.3606   10.2973 C   0  0  0  0  0  0  0  0  0  0  0  0
   -1.2651   -2.0286   10.8334 C   0  0  0  0  0  0  0  0  0  0  0  0
   -0.3352   -1.5001   11.8417 C   0  0  0  0  0  0  0  0  0  0  0  0
    0.9256   -0.8985   11.2411 C   0  0  0  0  0  0  0  0  0  0  0  0
    0.7220   -0.4709    9.8775 N   0  0  0  0  0  0  0  0  0  0  0  0
   -0.6073    0.0334    9.5654 C   0  0  0  0  0  0  0  0  0  0  0  0
   -1.5461   -1.1384    9.6689 C   0  0  0  0  0  0  0  0  0  0  0  0
    1.7430   -0.5307    8.8712 C   0  0  0  0  0  0  0  0  0  0  0  0
    1.5427   -0.3138    7.5439 N   0  0  0  0  0  0  0  0  0  0  0  0
    2.7047   -0.4471    6.8975 C   0  0  0  0  0  0  0  0  0  0  0  0
    3.0926   -0.3414    5.5612 C   0  0  0  0  0  0  0  0  0  0  0  0
    4.4052   -0.5399    5.1724 C   0  0  0  0  0  0  0  0  0  0  0  0
    5.3488   -0.8494    6.1296 C   0  0  0  0  0  0  0  0  0  0  0  0
    4.9503   -0.9519    7.4588 C   0  0  0  0  0  0  0  0  0  0  0  0
    3.6418   -0.7552    7.8555 C   0  0  0  0  0  0  0  0  0  0  0  0
    3.0088   -0.7893    9.0027 O   0  0  0  0  0  0  0  0  0  0  0  0
   -2.4915   -2.4823   11.4028 N   0  0  0  0  0  0  0  0  0  0  0  0
   -3.0810   -3.3319   10.4085 C   0  0  0  0  0  0  0  0  0  0  0  0
   -3.5217   -1.3174   12.0588 S   0  0  0  0  0  6  0  0  0  0  0  0
   -4.8206   -1.9153   12.5797 O   0  0  0  0  0  0  0  0  0  0  0  0
   -3.9378   -0.2594   11.0793 O   0  0  0  0  0  0  0  0  0  0  0  0
   -2.7237   -0.5020   13.3755 C   0  0  0  0  0  0  0  0  0  0  0  0
   -2.2570   -1.2576   14.4460 C   0  0  0  0  0  0  0  0  0  0  0  0
   -1.6221   -0.6848   15.5206 C   0  0  0  0  0  0  0  0  0  0  0  0
   -1.4256    0.6725   15.5698 C   0  0  0  0  0  0  0  0  0  0  0  0
   -1.8850    1.4343   14.5099 C   0  0  0  0  0  0  0  0  0  0  0  0
   -2.5258    0.8517   13.4278 C   0  0  0  0  0  0  0  0  0  0  0  0
  1  2  1  0
  2  3  1  0
  3  4  1  0
  4  5  1  0
  5  6  1  0
  6  7  1  0
  7  8  1  0
  6  9  1  0
  9 10  2  0
 10 11  1  0
 11 12  2  0
 12 13  1  0
 13 14  2  0
 14 15  1  0
 15 16  2  0
 16 17  1  0
  3 18  1  0
 18 19  1  0
 18 20  1  0
 20 21  2  0
 20 22  2  0
 20 23  1  0
 23 24  2  0
 24 25  1  0
 25 26  2  0
 26 27  1  0
 27 28  2  0
 19  1  1  0
  8  3  1  0
 17  9  1  0
 16 11  1  0
 28 23  1  0
M  END
$$$$
