
     RDKit          3D

 28 32  0  0  0  0  0  0  0  0999 V2000
   -0.4847   -4.5542    9.5458 C   0  0  0  0  0  0  0  0  0  0  0  0
    0.8116   -3.8248    9.7239 C   0  0  0  0  0  0  0  0  0  0  0  0
    0.6130   -2.9743   10.9948 C   0  0  0  0  0  0  0  0  0  0  0  0
    1.9247   -2.7552   11.6209 C   0  0  0  0  0  0  0  0  0  0  0  0
    2.7777   -1.7315   10.8883 C   0  0  0  0  0  0  0  0  0  0  0  0
    1.9745   -0.8162   10.1134 N   0  0  0  0  0  0  0  0  0  0  0  0
    0.6725   -0.4871   10.6748 C   0  0  0  0  0  0  0  0  0  0  0  0
   -0.1491   -1.7469   10.6204 C   0  0  0  0  0  0  0  0  0  0  0  0
    2.4026   -0.2536    8.8648 C   0  0  0  0  0  0  0  0  0  0  0  0
    3.5733   -0.5467    8.2384 N   0  0  0  0  0  0  0  0  0  0  0  0
    3.6495    0.1518    7.1017 C   0  0  0  0  0  0  0  0  0  0  0  0
    4.5972    0.2511    6.0823 C   0  0  0  0  0  0  0  0  0  0  0  0
    4.4028    1.0828    4.9941 C   0  0  0  0  0  0  0  0  0  0  0  0
    3.2455    1.8292    4.9188 C   0  0  0  0  0  0  0  0  0  0  0  0
    2.3077    1.7219    5.9411 C   0  0  0  0  0  0  0  0  0  0  0  0
    2.4939    0.8938    7.0310 C   0  0  0  0  0  0  0  0  0  0  0  0
    1.7982    0.6083    8.1044 O   0  0  0  0  0  0  0  0  0  0  0  0
   -0.2192   -3.8473   11.7562 N   0  0  0  0  0  0  0  0  0  0  0  0
   -1.2351   -4.2932   10.8469 C   0  0  0  0  0  0  0  0  0  0  0  0
   -0.7806   -3.2834   13.2447 S   0  0  0  0  0  6  0  0  0  0  0  0
   -0.0127   -2.0637   13.7330 O   0  0  0  0  0  0  0  0  0  0  0  0
   -0.6701   -4.2902   14.3521 O   0  0  0  0  0  0  0  0  0  0  0  0
   -2.4650   -2.8579   13.1143 C   0  0  0  0  0  0  0  0  0  0  0  0
   -3.0226   -2.0285   14.0817 C   0  0  0  0  0  0  0  0  0  0  0  0
   -4.3433   -1.6535   14.0471 C   0  0  0  0  0  0  0  0  0  0  0  0
   -5.1648   -2.0930   13.0396 C   0  0  0  0  0  0  0  0  0  0  0  0
   -4.6209   -2.9180   12.0710 C   0  0  0  0  0  0  0  0  0  0  0  0
   -3.2875   -3.2943   12.1105 C   0  0  0  0  0  0  0  0  0  0  0  0
  1  2  1  0
  2  3  1  0
  3  4  1  0
  4  5  1  0
  5  6  1  0
  6  7  1  0
  7  8  1  0
  6  9  1  0
  9 10  2  0
 10 11  1  0
 11 12  2  0
 12 13  1  0
 13 14  2  0
 14 15  1  0
 15 16  2  0
 16 17  1  0
  3 18  1  0
 18 19  1  0
 18 20  1  0
 20 21  2  0
 20 22  2  0
 20 23  1  0
 23 24  2  0
 24 25  1  0
 25 26  2  0
 26 27  1  0
 27 28  2  0
 19  1  1  0
  8  3  1  0
 17  9  1  0
 16 11  1  0
 28 23  1  0
M  END
$$$$
