
     RDKit          3D

 28 32  0  0  0  0  0  0  0  0999 V2000
   -2.2474   -3.0123    9.7818 C   0  0  0  0  0  0  0  0  0  0  0  0
   -0.7783   -3.2032   10.0040 C   0  0  0  0  0  0  0  0  0  0  0  0
   -0.3980   -2.1405   11.0547 C   0  0  0  0  0  0  0  0  0  0  0  0
    0.7672   -2.6243   11.8089 C   0  0  0  0  0  0  0  0  0  0  0  0
    2.0690   -2.5345   11.0282 C   0  0  0  0  0  0  0  0  0  0  0  0
    2.0077   -1.5318    9.9917 N   0  0  0  0  0  0  0  0  0  0  0  0
    1.1970   -0.3609   10.2925 C   0  0  0  0  0  0  0  0  0  0  0  0
   -0.2309   -0.8324   10.3560 C   0  0  0  0  0  0  0  0  0  0  0  0
    2.6875   -1.6546    8.7341 C   0  0  0  0  0  0  0  0  0  0  0  0
    3.3881   -2.7477    8.3303 N   0  0  0  0  0  0  0  0  0  0  0  0
    3.8875   -2.5230    7.1113 C   0  0  0  0  0  0  0  0  0  0  0  0
    4.6675   -3.2686    6.2266 C   0  0  0  0  0  0  0  0  0  0  0  0
    5.0464   -2.7634    4.9958 C   0  0  0  0  0  0  0  0  0  0  0  0
    4.6428   -1.4938    4.6389 C   0  0  0  0  0  0  0  0  0  0  0  0
    3.8652   -0.7597    5.5291 C   0  0  0  0  0  0  0  0  0  0  0  0
    3.4823   -1.2567    6.7599 C   0  0  0  0  0  0  0  0  0  0  0  0
    2.7753   -0.7968    7.7630 O   0  0  0  0  0  0  0  0  0  0  0  0
   -1.5894   -2.1218   11.8386 N   0  0  0  0  0  0  0  0  0  0  0  0
   -2.6659   -2.0558   10.8927 C   0  0  0  0  0  0  0  0  0  0  0  0
   -1.6705   -1.0062   13.1025 S   0  0  0  0  0  6  0  0  0  0  0  0
   -0.4156   -1.0087   13.9633 O   0  0  0  0  0  0  0  0  0  0  0  0
   -2.8039   -1.2540   14.0544 O   0  0  0  0  0  0  0  0  0  0  0  0
   -1.8929    0.5970   12.4577 C   0  0  0  0  0  0  0  0  0  0  0  0
   -3.1876    1.0625   12.2535 C   0  0  0  0  0  0  0  0  0  0  0  0
   -3.4409    2.3130   11.7453 C   0  0  0  0  0  0  0  0  0  0  0  0
   -2.4065    3.1539   11.4194 C   0  0  0  0  0  0  0  0  0  0  0  0
   -1.1141    2.7017   11.6191 C   0  0  0  0  0  0  0  0  0  0  0  0
   -0.8634    1.4386   12.1317 C   0  0  0  0  0  0  0  0  0  0  0  0
  1  2  1  0
  2  3  1  0
  3  4  1  0
  4  5  1  0
  5  6  1  0
  6  7  1  0
  7  8  1  0
  6  9  1  0
  9 10  2  0
 10 11  1  0
 11 12  2  0
 12 13  1  0
 13 14  2  0
 14 15  1  0
 15 16  2  0
 16 17  1  0
  3 18  1  0
 18 19  1  0
 18 20  1  0
 20 21  2  0
 20 22  2  0
 20 23  1  0
 23 24  2  0
 24 25  1  0
 25 26  2  0
 26 27  1  0
 27 28  2  0
 19  1  1  0
  8  3  1  0
 17  9  1  0
 16 11  1  0
 28 23  1  0
M  END
$$$$
