
     RDKit          3D

 28 32  0  0  0  0  0  0  0  0999 V2000
   -1.9528   -3.1761    9.4640 C   0  0  0  0  0  0  0  0  0  0  0  0
   -0.4895   -3.2728    9.7694 C   0  0  0  0  0  0  0  0  0  0  0  0
   -0.1863   -2.0353   10.6380 C   0  0  0  0  0  0  0  0  0  0  0  0
    0.9596   -2.3422   11.5059 C   0  0  0  0  0  0  0  0  0  0  0  0
    2.2903   -2.3372   10.7700 C   0  0  0  0  0  0  0  0  0  0  0  0
    2.2433   -1.5262    9.5769 N   0  0  0  0  0  0  0  0  0  0  0  0
    1.3858   -0.3519    9.6446 C   0  0  0  0  0  0  0  0  0  0  0  0
   -0.0288   -0.8581    9.7343 C   0  0  0  0  0  0  0  0  0  0  0  0
    2.9795   -1.8338    8.3844 C   0  0  0  0  0  0  0  0  0  0  0  0
    3.0431   -1.0412    7.2814 N   0  0  0  0  0  0  0  0  0  0  0  0
    3.8143   -1.6296    6.3622 C   0  0  0  0  0  0  0  0  0  0  0  0
    4.2241   -1.2882    5.0728 C   0  0  0  0  0  0  0  0  0  0  0  0
    5.0473   -2.1183    4.3332 C   0  0  0  0  0  0  0  0  0  0  0  0
    5.4700   -3.3091    4.8857 C   0  0  0  0  0  0  0  0  0  0  0  0
    5.0550   -3.6388    6.1722 C   0  0  0  0  0  0  0  0  0  0  0  0
    4.2333   -2.8158    6.9176 C   0  0  0  0  0  0  0  0  0  0  0  0
    3.7049   -2.8769    8.1155 O   0  0  0  0  0  0  0  0  0  0  0  0
   -1.4101   -1.9286   11.3628 N   0  0  0  0  0  0  0  0  0  0  0  0
   -2.4467   -2.0623   10.3803 C   0  0  0  0  0  0  0  0  0  0  0  0
   -1.5784   -0.6200   12.4154 S   0  0  0  0  0  6  0  0  0  0  0  0
   -0.3709   -0.4447   13.3248 O   0  0  0  0  0  0  0  0  0  0  0  0
   -2.7558   -0.7357   13.3387 O   0  0  0  0  0  0  0  0  0  0  0  0
   -1.7957    0.8462   11.4998 C   0  0  0  0  0  0  0  0  0  0  0  0
   -3.0802    1.2035   11.1033 C   0  0  0  0  0  0  0  0  0  0  0  0
   -3.3286    2.3420   10.3766 C   0  0  0  0  0  0  0  0  0  0  0  0
   -2.2993    3.1746   10.0150 C   0  0  0  0  0  0  0  0  0  0  0  0
   -1.0171    2.8297   10.4046 C   0  0  0  0  0  0  0  0  0  0  0  0
   -0.7713    1.6793   11.1375 C   0  0  0  0  0  0  0  0  0  0  0  0
  1  2  1  0
  2  3  1  0
  3  4  1  0
  4  5  1  0
  5  6  1  0
  6  7  1  0
  7  8  1  0
  6  9  1  0
  9 10  2  0
 10 11  1  0
 11 12  2  0
 12 13  1  0
 13 14  2  0
 14 15  1  0
 15 16  2  0
 16 17  1  0
  3 18  1  0
 18 19  1  0
 18 20  1  0
 20 21  2  0
 20 22  2  0
 20 23  1  0
 23 24  2  0
 24 25  1  0
 25 26  2  0
 26 27  1  0
 27 28  2  0
 19  1  1  0
  8  3  1  0
 17  9  1  0
 16 11  1  0
 28 23  1  0
M  END
$$$$
