
     RDKit          3D

 28 32  0  0  0  0  0  0  0  0999 V2000
   -1.7649    1.4296    8.4634 C   0  0  0  0  0  0  0  0  0  0  0  0
   -1.1890    0.0579    8.2873 C   0  0  0  0  0  0  0  0  0  0  0  0
   -1.0053   -0.4786    9.7213 C   0  0  0  0  0  0  0  0  0  0  0  0
   -1.0869   -1.9458    9.6859 C   0  0  0  0  0  0  0  0  0  0  0  0
    0.1611   -2.6045    9.1193 C   0  0  0  0  0  0  0  0  0  0  0  0
    1.3242   -1.7603    9.2535 N   0  0  0  0  0  0  0  0  0  0  0  0
    1.3585   -0.9155   10.4383 C   0  0  0  0  0  0  0  0  0  0  0  0
    0.2555    0.0957   10.2764 C   0  0  0  0  0  0  0  0  0  0  0  0
    2.3921   -1.7306    8.2956 C   0  0  0  0  0  0  0  0  0  0  0  0
    2.5807   -2.6479    7.3099 N   0  0  0  0  0  0  0  0  0  0  0  0
    3.6646   -2.3151    6.6025 C   0  0  0  0  0  0  0  0  0  0  0  0
    4.3193   -2.8742    5.5044 C   0  0  0  0  0  0  0  0  0  0  0  0
    5.4559   -2.2948    4.9695 C   0  0  0  0  0  0  0  0  0  0  0  0
    5.9503   -1.1391    5.5371 C   0  0  0  0  0  0  0  0  0  0  0  0
    5.2889   -0.5908    6.6316 C   0  0  0  0  0  0  0  0  0  0  0  0
    4.1535   -1.1628    7.1719 C   0  0  0  0  0  0  0  0  0  0  0  0
    3.3553   -0.8687    8.1690 O   0  0  0  0  0  0  0  0  0  0  0  0
   -2.1317    0.1180   10.3612 N   0  0  0  0  0  0  0  0  0  0  0  0
   -2.1232    1.4905    9.9439 C   0  0  0  0  0  0  0  0  0  0  0  0
   -2.3037   -0.1299   12.0218 S   0  0  0  0  0  6  0  0  0  0  0  0
   -2.8333    1.1011   12.7429 O   0  0  0  0  0  0  0  0  0  0  0  0
   -1.0189   -0.4737   12.7169 O   0  0  0  0  0  0  0  0  0  0  0  0
   -3.4028   -1.4511   12.3078 C   0  0  0  0  0  0  0  0  0  0  0  0
   -4.7672   -1.2331   12.1481 C   0  0  0  0  0  0  0  0  0  0  0  0
   -5.6935   -2.2247   12.3593 C   0  0  0  0  0  0  0  0  0  0  0  0
   -5.2930   -3.4809   12.7399 C   0  0  0  0  0  0  0  0  0  0  0  0
   -3.9378   -3.7097   12.9011 C   0  0  0  0  0  0  0  0  0  0  0  0
   -3.0067   -2.7055   12.6872 C   0  0  0  0  0  0  0  0  0  0  0  0
  1  2  1  0
  2  3  1  0
  3  4  1  0
  4  5  1  0
  5  6  1  0
  6  7  1  0
  7  8  1  0
  6  9  1  0
  9 10  2  0
 10 11  1  0
 11 12  2  0
 12 13  1  0
 13 14  2  0
 14 15  1  0
 15 16  2  0
 16 17  1  0
  3 18  1  0
 18 19  1  0
 18 20  1  0
 20 21  2  0
 20 22  2  0
 20 23  1  0
 23 24  2  0
 24 25  1  0
 25 26  2  0
 26 27  1  0
 27 28  2  0
 19  1  1  0
  8  3  1  0
 17  9  1  0
 16 11  1  0
 28 23  1  0
M  END
$$$$
