
     RDKit          3D

 28 32  0  0  0  0  0  0  0  0999 V2000
   -1.5649    1.5806    8.7016 C   0  0  0  0  0  0  0  0  0  0  0  0
   -1.0525    0.1879    8.4969 C   0  0  0  0  0  0  0  0  0  0  0  0
   -1.0948   -0.4565    9.8972 C   0  0  0  0  0  0  0  0  0  0  0  0
   -1.2573   -1.9088    9.7392 C   0  0  0  0  0  0  0  0  0  0  0  0
    0.0144   -2.6114    9.2902 C   0  0  0  0  0  0  0  0  0  0  0  0
    1.1967   -1.8601    9.6381 N   0  0  0  0  0  0  0  0  0  0  0  0
    1.1215   -1.1024   10.8787 C   0  0  0  0  0  0  0  0  0  0  0  0
    0.1117   -0.0092   10.6533 C   0  0  0  0  0  0  0  0  0  0  0  0
    2.3833   -1.8384    8.8318 C   0  0  0  0  0  0  0  0  0  0  0  0
    3.6439   -2.0524    9.2942 N   0  0  0  0  0  0  0  0  0  0  0  0
    4.5058   -1.9609    8.2770 C   0  0  0  0  0  0  0  0  0  0  0  0
    5.8909   -2.0840    8.1611 C   0  0  0  0  0  0  0  0  0  0  0  0
    6.5300   -1.9317    6.9438 C   0  0  0  0  0  0  0  0  0  0  0  0
    5.7782   -1.6517    5.8219 C   0  0  0  0  0  0  0  0  0  0  0  0
    4.3979   -1.5315    5.9497 C   0  0  0  0  0  0  0  0  0  0  0  0
    3.7518   -1.6821    7.1613 C   0  0  0  0  0  0  0  0  0  0  0  0
    2.5036   -1.6228    7.5568 O   0  0  0  0  0  0  0  0  0  0  0  0
   -2.2597    0.1710   10.4297 N   0  0  0  0  0  0  0  0  0  0  0  0
   -2.1144    1.5649   10.1235 C   0  0  0  0  0  0  0  0  0  0  0  0
   -2.6672   -0.1772   12.0301 S   0  0  0  0  0  6  0  0  0  0  0  0
   -3.5837    0.8735   12.6399 O   0  0  0  0  0  0  0  0  0  0  0  0
   -1.4848   -0.2536   12.9511 O   0  0  0  0  0  0  0  0  0  0  0  0
   -3.4704   -1.7213   12.1092 C   0  0  0  0  0  0  0  0  0  0  0  0
   -2.7643   -2.8191   12.5896 C   0  0  0  0  0  0  0  0  0  0  0  0
   -3.3294   -4.0677   12.6774 C   0  0  0  0  0  0  0  0  0  0  0  0
   -4.6294   -4.2717   12.2878 C   0  0  0  0  0  0  0  0  0  0  0  0
   -5.3420   -3.1865   11.8090 C   0  0  0  0  0  0  0  0  0  0  0  0
   -4.7672   -1.9283   11.7217 C   0  0  0  0  0  0  0  0  0  0  0  0
  1  2  1  0
  2  3  1  0
  3  4  1  0
  4  5  1  0
  5  6  1  0
  6  7  1  0
  7  8  1  0
  6  9  1  0
  9 10  2  0
 10 11  1  0
 11 12  2  0
 12 13  1  0
 13 14  2  0
 14 15  1  0
 15 16  2  0
 16 17  1  0
  3 18  1  0
 18 19  1  0
 18 20  1  0
 20 21  2  0
 20 22  2  0
 20 23  1  0
 23 24  2  0
 24 25  1  0
 25 26  2  0
 26 27  1  0
 27 28  2  0
 19  1  1  0
  8  3  1  0
 17  9  1  0
 16 11  1  0
 28 23  1  0
M  END
$$$$
