
     RDKit          3D

 28 32  0  0  0  0  0  0  0  0999 V2000
   -3.1908   -2.7327    9.2276 C   0  0  0  0  0  0  0  0  0  0  0  0
   -1.7619   -3.1266    9.4446 C   0  0  0  0  0  0  0  0  0  0  0  0
   -1.3754   -2.4794   10.7898 C   0  0  0  0  0  0  0  0  0  0  0  0
   -0.3108   -3.2834   11.4070 C   0  0  0  0  0  0  0  0  0  0  0  0
    1.0475   -3.0881   10.7520 C   0  0  0  0  0  0  0  0  0  0  0  0
    1.1426   -1.8154   10.0776 N   0  0  0  0  0  0  0  0  0  0  0  0
    0.4085   -0.7186   10.6916 C   0  0  0  0  0  0  0  0  0  0  0  0
   -1.0534   -1.0435   10.5413 C   0  0  0  0  0  0  0  0  0  0  0  0
    1.9003   -1.6141    8.8760 C   0  0  0  0  0  0  0  0  0  0  0  0
    2.8340   -2.4748    8.3898 N   0  0  0  0  0  0  0  0  0  0  0  0
    3.3411   -1.9781    7.2576 C   0  0  0  0  0  0  0  0  0  0  0  0
    4.3061   -2.4155    6.3495 C   0  0  0  0  0  0  0  0  0  0  0  0
    4.6379   -1.6692    5.2330 C   0  0  0  0  0  0  0  0  0  0  0  0
    3.9988   -0.4664    5.0160 C   0  0  0  0  0  0  0  0  0  0  0  0
    3.0382   -0.0407    5.9282 C   0  0  0  0  0  0  0  0  0  0  0  0
    2.7009   -0.7797    7.0455 C   0  0  0  0  0  0  0  0  0  0  0  0
    1.8602   -0.6223    8.0386 O   0  0  0  0  0  0  0  0  0  0  0  0
   -2.6155   -2.5838   11.4866 N   0  0  0  0  0  0  0  0  0  0  0  0
   -3.6113   -2.1256   10.5613 C   0  0  0  0  0  0  0  0  0  0  0  0
   -2.6990   -1.9062   13.0302 S   0  0  0  0  0  6  0  0  0  0  0  0
   -1.5761   -2.3856   13.9385 O   0  0  0  0  0  0  0  0  0  0  0  0
   -3.9673   -2.2305   13.7638 O   0  0  0  0  0  0  0  0  0  0  0  0
   -2.6109   -0.1700   12.9151 C   0  0  0  0  0  0  0  0  0  0  0  0
   -1.4387    0.4680   13.3066 C   0  0  0  0  0  0  0  0  0  0  0  0
   -1.2969    1.8328   13.2479 C   0  0  0  0  0  0  0  0  0  0  0  0
   -2.3250    2.6197   12.7928 C   0  0  0  0  0  0  0  0  0  0  0  0
   -3.4958    1.9959   12.3997 C   0  0  0  0  0  0  0  0  0  0  0  0
   -3.6344    0.6182   12.4613 C   0  0  0  0  0  0  0  0  0  0  0  0
  1  2  1  0
  2  3  1  0
  3  4  1  0
  4  5  1  0
  5  6  1  0
  6  7  1  0
  7  8  1  0
  6  9  1  0
  9 10  2  0
 10 11  1  0
 11 12  2  0
 12 13  1  0
 13 14  2  0
 14 15  1  0
 15 16  2  0
 16 17  1  0
  3 18  1  0
 18 19  1  0
 18 20  1  0
 20 21  2  0
 20 22  2  0
 20 23  1  0
 23 24  2  0
 24 25  1  0
 25 26  2  0
 26 27  1  0
 27 28  2  0
 19  1  1  0
  8  3  1  0
 17  9  1  0
 16 11  1  0
 28 23  1  0
M  END
$$$$
