
     RDKit          3D

 28 32  0  0  0  0  0  0  0  0999 V2000
   -2.0201    1.5177    8.5963 C   0  0  0  0  0  0  0  0  0  0  0  0
   -1.4002    0.1795    8.3334 C   0  0  0  0  0  0  0  0  0  0  0  0
   -1.2262   -0.4543    9.7283 C   0  0  0  0  0  0  0  0  0  0  0  0
   -1.2631   -1.9168    9.5856 C   0  0  0  0  0  0  0  0  0  0  0  0
    0.0141   -2.4966    8.9982 C   0  0  0  0  0  0  0  0  0  0  0  0
    1.1488   -1.6314    9.2162 N   0  0  0  0  0  0  0  0  0  0  0  0
    1.1364   -0.8742   10.4593 C   0  0  0  0  0  0  0  0  0  0  0  0
    0.0065    0.1140   10.3486 C   0  0  0  0  0  0  0  0  0  0  0  0
    2.2323   -1.5015    8.2846 C   0  0  0  0  0  0  0  0  0  0  0  0
    2.3241   -2.1610    7.0991 N   0  0  0  0  0  0  0  0  0  0  0  0
    3.4566   -1.8046    6.4855 C   0  0  0  0  0  0  0  0  0  0  0  0
    4.0586   -2.1520    5.2756 C   0  0  0  0  0  0  0  0  0  0  0  0
    5.2710   -1.6086    4.8900 C   0  0  0  0  0  0  0  0  0  0  0  0
    5.8957   -0.7041    5.7228 C   0  0  0  0  0  0  0  0  0  0  0  0
    5.2858   -0.3652    6.9267 C   0  0  0  0  0  0  0  0  0  0  0  0
    4.0755   -0.9030    7.3192 C   0  0  0  0  0  0  0  0  0  0  0  0
    3.2997   -0.7664    8.3667 O   0  0  0  0  0  0  0  0  0  0  0  0
   -2.3814    0.0617   10.3868 N   0  0  0  0  0  0  0  0  0  0  0  0
   -2.4065    1.4606   10.0699 C   0  0  0  0  0  0  0  0  0  0  0  0
   -2.5756   -0.3110   12.0215 S   0  0  0  0  0  6  0  0  0  0  0  0
   -4.0096   -0.1241   12.4953 O   0  0  0  0  0  0  0  0  0  0  0  0
   -1.7424    0.5373   12.9370 O   0  0  0  0  0  0  0  0  0  0  0  0
   -2.1131   -1.9666   12.3055 C   0  0  0  0  0  0  0  0  0  0  0  0
   -3.0442   -2.9719   12.0668 C   0  0  0  0  0  0  0  0  0  0  0  0
   -2.7533   -4.2984   12.2713 C   0  0  0  0  0  0  0  0  0  0  0  0
   -1.5144   -4.6769   12.7242 C   0  0  0  0  0  0  0  0  0  0  0  0
   -0.5796   -3.6853   12.9643 C   0  0  0  0  0  0  0  0  0  0  0  0
   -0.8780   -2.3478   12.7569 C   0  0  0  0  0  0  0  0  0  0  0  0
  1  2  1  0
  2  3  1  0
  3  4  1  0
  4  5  1  0
  5  6  1  0
  6  7  1  0
  7  8  1  0
  6  9  1  0
  9 10  2  0
 10 11  1  0
 11 12  2  0
 12 13  1  0
 13 14  2  0
 14 15  1  0
 15 16  2  0
 16 17  1  0
  3 18  1  0
 18 19  1  0
 18 20  1  0
 20 21  2  0
 20 22  2  0
 20 23  1  0
 23 24  2  0
 24 25  1  0
 25 26  2  0
 26 27  1  0
 27 28  2  0
 19  1  1  0
  8  3  1  0
 17  9  1  0
 16 11  1  0
 28 23  1  0
M  END
$$$$
