
     RDKit          3D

 28 32  0  0  0  0  0  0  0  0999 V2000
   -2.7156   -2.2329    8.6287 C   0  0  0  0  0  0  0  0  0  0  0  0
   -1.3098   -2.5050    9.0689 C   0  0  0  0  0  0  0  0  0  0  0  0
   -1.1425   -1.6980   10.3722 C   0  0  0  0  0  0  0  0  0  0  0  0
   -0.1292   -2.3604   11.2059 C   0  0  0  0  0  0  0  0  0  0  0  0
    1.2925   -2.1423   10.7121 C   0  0  0  0  0  0  0  0  0  0  0  0
    1.4092   -0.9425    9.9183 N   0  0  0  0  0  0  0  0  0  0  0  0
    0.5419    0.1597   10.3079 C   0  0  0  0  0  0  0  0  0  0  0  0
   -0.8672   -0.2769   10.0091 C   0  0  0  0  0  0  0  0  0  0  0  0
    2.3096   -0.8153    8.8085 C   0  0  0  0  0  0  0  0  0  0  0  0
    3.4321   -1.5607    8.6261 N   0  0  0  0  0  0  0  0  0  0  0  0
    4.0310   -1.1818    7.4932 C   0  0  0  0  0  0  0  0  0  0  0  0
    5.1859   -1.5843    6.8213 C   0  0  0  0  0  0  0  0  0  0  0  0
    5.5724   -0.9932    5.6318 C   0  0  0  0  0  0  0  0  0  0  0  0
    4.7968    0.0163    5.1014 C   0  0  0  0  0  0  0  0  0  0  0  0
    3.6474    0.4091    5.7802 C   0  0  0  0  0  0  0  0  0  0  0  0
    3.2542   -0.1758    6.9683 C   0  0  0  0  0  0  0  0  0  0  0  0
    2.2505   -0.0068    7.7940 O   0  0  0  0  0  0  0  0  0  0  0  0
   -2.4576   -1.8135   10.9121 N   0  0  0  0  0  0  0  0  0  0  0  0
   -3.3432   -1.5213    9.8220 C   0  0  0  0  0  0  0  0  0  0  0  0
   -2.7837   -0.9876   12.3475 S   0  0  0  0  0  6  0  0  0  0  0  0
   -3.2057    0.4545   12.1070 O   0  0  0  0  0  0  0  0  0  0  0  0
   -1.6086   -0.9063   13.2774 O   0  0  0  0  0  0  0  0  0  0  0  0
   -4.0596   -1.7975   13.2144 C   0  0  0  0  0  0  0  0  0  0  0  0
   -3.7444   -2.9167   13.9778 C   0  0  0  0  0  0  0  0  0  0  0  0
   -4.6969   -3.6087   14.6849 C   0  0  0  0  0  0  0  0  0  0  0  0
   -6.0094   -3.2088   14.6588 C   0  0  0  0  0  0  0  0  0  0  0  0
   -6.3347   -2.0961   13.9033 C   0  0  0  0  0  0  0  0  0  0  0  0
   -5.3700   -1.4013   13.1909 C   0  0  0  0  0  0  0  0  0  0  0  0
  1  2  1  0
  2  3  1  0
  3  4  1  0
  4  5  1  0
  5  6  1  0
  6  7  1  0
  7  8  1  0
  6  9  1  0
  9 10  2  0
 10 11  1  0
 11 12  2  0
 12 13  1  0
 13 14  2  0
 14 15  1  0
 15 16  2  0
 16 17  1  0
  3 18  1  0
 18 19  1  0
 18 20  1  0
 20 21  2  0
 20 22  2  0
 20 23  1  0
 23 24  2  0
 24 25  1  0
 25 26  2  0
 26 27  1  0
 27 28  2  0
 19  1  1  0
  8  3  1  0
 17  9  1  0
 16 11  1  0
 28 23  1  0
M  END
$$$$
