
     RDKit          3D

 28 32  0  0  0  0  0  0  0  0999 V2000
   -2.0114    1.0089    8.6011 C   0  0  0  0  0  0  0  0  0  0  0  0
   -1.4055   -0.3219    8.2756 C   0  0  0  0  0  0  0  0  0  0  0  0
   -1.1896   -1.0008    9.6432 C   0  0  0  0  0  0  0  0  0  0  0  0
   -1.2368   -2.4579    9.4548 C   0  0  0  0  0  0  0  0  0  0  0  0
    0.0187   -3.0221    8.8085 C   0  0  0  0  0  0  0  0  0  0  0  0
    1.1631   -2.1677    9.0177 N   0  0  0  0  0  0  0  0  0  0  0  0
    1.1933   -1.4510   10.2843 C   0  0  0  0  0  0  0  0  0  0  0  0
    0.0645   -0.4565   10.2417 C   0  0  0  0  0  0  0  0  0  0  0  0
    2.2169   -2.0110    8.0567 C   0  0  0  0  0  0  0  0  0  0  0  0
    3.3890   -1.3605    8.2842 N   0  0  0  0  0  0  0  0  0  0  0  0
    4.1381   -1.4064    7.1785 C   0  0  0  0  0  0  0  0  0  0  0  0
    5.4010   -0.9206    6.8379 C   0  0  0  0  0  0  0  0  0  0  0  0
    5.9375   -1.1236    5.5791 C   0  0  0  0  0  0  0  0  0  0  0  0
    5.2046   -1.8219    4.6424 C   0  0  0  0  0  0  0  0  0  0  0  0
    3.9466   -2.3016    4.9935 C   0  0  0  0  0  0  0  0  0  0  0  0
    3.4036   -2.1034    6.2481 C   0  0  0  0  0  0  0  0  0  0  0  0
    2.2767   -2.4338    6.8302 O   0  0  0  0  0  0  0  0  0  0  0  0
   -2.3212   -0.5030   10.3546 N   0  0  0  0  0  0  0  0  0  0  0  0
   -2.3509    0.9055   10.0837 C   0  0  0  0  0  0  0  0  0  0  0  0
   -2.4646   -0.9277   11.9817 S   0  0  0  0  0  6  0  0  0  0  0  0
   -2.6421    0.2829   12.8865 O   0  0  0  0  0  0  0  0  0  0  0  0
   -1.2688   -1.6548   12.5234 O   0  0  0  0  0  0  0  0  0  0  0  0
   -3.8363   -1.9806   12.1953 C   0  0  0  0  0  0  0  0  0  0  0  0
   -5.1110   -1.4242   12.2106 C   0  0  0  0  0  0  0  0  0  0  0  0
   -6.2386   -2.1900   12.3781 C   0  0  0  0  0  0  0  0  0  0  0  0
   -6.1387   -3.5494   12.5373 C   0  0  0  0  0  0  0  0  0  0  0  0
   -4.8755   -4.1142   12.5229 C   0  0  0  0  0  0  0  0  0  0  0  0
   -3.7403   -3.3371   12.3541 C   0  0  0  0  0  0  0  0  0  0  0  0
  1  2  1  0
  2  3  1  0
  3  4  1  0
  4  5  1  0
  5  6  1  0
  6  7  1  0
  7  8  1  0
  6  9  1  0
  9 10  2  0
 10 11  1  0
 11 12  2  0
 12 13  1  0
 13 14  2  0
 14 15  1  0
 15 16  2  0
 16 17  1  0
  3 18  1  0
 18 19  1  0
 18 20  1  0
 20 21  2  0
 20 22  2  0
 20 23  1  0
 23 24  2  0
 24 25  1  0
 25 26  2  0
 26 27  1  0
 27 28  2  0
 19  1  1  0
  8  3  1  0
 17  9  1  0
 16 11  1  0
 28 23  1  0
M  END
$$$$
