
     RDKit          3D

 28 32  0  0  0  0  0  0  0  0999 V2000
    0.8750   -3.1490   12.6509 C   0  0  0  0  0  0  0  0  0  0  0  0
    0.9334   -1.9836   11.7114 C   0  0  0  0  0  0  0  0  0  0  0  0
   -0.4502   -1.9573   11.0310 C   0  0  0  0  0  0  0  0  0  0  0  0
   -0.7471   -0.5752   10.6281 C   0  0  0  0  0  0  0  0  0  0  0  0
    0.0308   -0.1256    9.4013 C   0  0  0  0  0  0  0  0  0  0  0  0
    0.4443   -1.2427    8.5861 N   0  0  0  0  0  0  0  0  0  0  0  0
   -0.4684   -2.3762    8.5578 C   0  0  0  0  0  0  0  0  0  0  0  0
   -0.4526   -2.9744    9.9389 C   0  0  0  0  0  0  0  0  0  0  0  0
    1.6716   -1.2657    7.8433 C   0  0  0  0  0  0  0  0  0  0  0  0
    2.7314   -0.4428    8.0634 N   0  0  0  0  0  0  0  0  0  0  0  0
    3.7036   -0.7376    7.1951 C   0  0  0  0  0  0  0  0  0  0  0  0
    4.9835   -0.2343    6.9595 C   0  0  0  0  0  0  0  0  0  0  0  0
    5.7896   -0.7497    5.9603 C   0  0  0  0  0  0  0  0  0  0  0  0
    5.3139   -1.7838    5.1815 C   0  0  0  0  0  0  0  0  0  0  0  0
    4.0362   -2.2776    5.4258 C   0  0  0  0  0  0  0  0  0  0  0  0
    3.2249   -1.7688    6.4214 C   0  0  0  0  0  0  0  0  0  0  0  0
    2.0174   -2.0350    6.8558 O   0  0  0  0  0  0  0  0  0  0  0  0
   -1.2711   -2.4026   12.1090 N   0  0  0  0  0  0  0  0  0  0  0  0
   -0.5969   -3.5460   12.6530 C   0  0  0  0  0  0  0  0  0  0  0  0
   -2.9159   -2.6162   11.7964 S   0  0  0  0  0  6  0  0  0  0  0  0
   -3.6660   -3.1902   12.9896 O   0  0  0  0  0  0  0  0  0  0  0  0
   -3.1973   -3.5574   10.6619 O   0  0  0  0  0  0  0  0  0  0  0  0
   -3.6374   -1.0872   11.3759 C   0  0  0  0  0  0  0  0  0  0  0  0
   -3.5286   -0.0274   12.2702 C   0  0  0  0  0  0  0  0  0  0  0  0
   -4.0746    1.2054   12.0094 C   0  0  0  0  0  0  0  0  0  0  0  0
   -4.7543    1.4315   10.8389 C   0  0  0  0  0  0  0  0  0  0  0  0
   -4.8682    0.3846    9.9412 C   0  0  0  0  0  0  0  0  0  0  0  0
   -4.3159   -0.8580   10.2090 C   0  0  0  0  0  0  0  0  0  0  0  0
  1  2  1  0
  2  3  1  0
  3  4  1  0
  4  5  1  0
  5  6  1  0
  6  7  1  0
  7  8  1  0
  6  9  1  0
  9 10  2  0
 10 11  1  0
 11 12  2  0
 12 13  1  0
 13 14  2  0
 14 15  1  0
 15 16  2  0
 16 17  1  0
  3 18  1  0
 18 19  1  0
 18 20  1  0
 20 21  2  0
 20 22  2  0
 20 23  1  0
 23 24  2  0
 24 25  1  0
 25 26  2  0
 26 27  1  0
 27 28  2  0
 19  1  1  0
  8  3  1  0
 17  9  1  0
 16 11  1  0
 28 23  1  0
M  END
$$$$
