
     RDKit          3D

 28 32  0  0  0  0  0  0  0  0999 V2000
   -2.0119    1.1779    8.1528 C   0  0  0  0  0  0  0  0  0  0  0  0
   -1.3755   -0.1772    8.0987 C   0  0  0  0  0  0  0  0  0  0  0  0
   -1.1765   -0.5775    9.5745 C   0  0  0  0  0  0  0  0  0  0  0  0
   -1.1937   -2.0443    9.6678 C   0  0  0  0  0  0  0  0  0  0  0  0
    0.0852   -2.6944    9.1634 C   0  0  0  0  0  0  0  0  0  0  0  0
    1.2094   -1.7913    9.2251 N   0  0  0  0  0  0  0  0  0  0  0  0
    1.2000   -0.8453   10.3313 C   0  0  0  0  0  0  0  0  0  0  0  0
    0.0547    0.0982   10.0794 C   0  0  0  0  0  0  0  0  0  0  0  0
    2.2803   -1.7984    8.2702 C   0  0  0  0  0  0  0  0  0  0  0  0
    3.1798   -0.7930    8.1003 N   0  0  0  0  0  0  0  0  0  0  0  0
    4.0368   -1.1301    7.1319 C   0  0  0  0  0  0  0  0  0  0  0  0
    5.1378   -0.5046    6.5457 C   0  0  0  0  0  0  0  0  0  0  0  0
    5.8562   -1.1098    5.5302 C   0  0  0  0  0  0  0  0  0  0  0  0
    5.4724   -2.3591    5.0896 C   0  0  0  0  0  0  0  0  0  0  0  0
    4.3730   -2.9730    5.6817 C   0  0  0  0  0  0  0  0  0  0  0  0
    3.6503   -2.3758    6.6963 C   0  0  0  0  0  0  0  0  0  0  0  0
    2.6051   -2.7157    7.4102 O   0  0  0  0  0  0  0  0  0  0  0  0
   -2.3316    0.0226   10.1576 N   0  0  0  0  0  0  0  0  0  0  0  0
   -2.3808    1.3523    9.6216 C   0  0  0  0  0  0  0  0  0  0  0  0
   -2.5019   -0.0863   11.8333 S   0  0  0  0  0  6  0  0  0  0  0  0
   -3.2047    1.1256   12.4275 O   0  0  0  0  0  0  0  0  0  0  0  0
   -1.1968   -0.1864   12.5673 O   0  0  0  0  0  0  0  0  0  0  0  0
   -3.4209   -1.5098   12.2391 C   0  0  0  0  0  0  0  0  0  0  0  0
   -4.7950   -1.5031   12.0234 C   0  0  0  0  0  0  0  0  0  0  0  0
   -5.5850   -2.5860   12.3222 C   0  0  0  0  0  0  0  0  0  0  0  0
   -5.0321   -3.7256   12.8505 C   0  0  0  0  0  0  0  0  0  0  0  0
   -3.6658   -3.7440   13.0685 C   0  0  0  0  0  0  0  0  0  0  0  0
   -2.8727   -2.6483   12.7659 C   0  0  0  0  0  0  0  0  0  0  0  0
  1  2  1  0
  2  3  1  0
  3  4  1  0
  4  5  1  0
  5  6  1  0
  6  7  1  0
  7  8  1  0
  6  9  1  0
  9 10  2  0
 10 11  1  0
 11 12  2  0
 12 13  1  0
 13 14  2  0
 14 15  1  0
 15 16  2  0
 16 17  1  0
  3 18  1  0
 18 19  1  0
 18 20  1  0
 20 21  2  0
 20 22  2  0
 20 23  1  0
 23 24  2  0
 24 25  1  0
 25 26  2  0
 26 27  1  0
 27 28  2  0
 19  1  1  0
  8  3  1  0
 17  9  1  0
 16 11  1  0
 28 23  1  0
M  END
$$$$
