
     RDKit          3D

 28 32  0  0  0  0  0  0  0  0999 V2000
   -0.7125    2.1991   10.4685 C   0  0  0  0  0  0  0  0  0  0  0  0
   -0.6644    1.0064    9.5634 C   0  0  0  0  0  0  0  0  0  0  0  0
   -1.0406   -0.1869   10.4648 C   0  0  0  0  0  0  0  0  0  0  0  0
   -1.6514   -1.2303    9.6289 C   0  0  0  0  0  0  0  0  0  0  0  0
   -0.6421   -1.9932    8.7853 C   0  0  0  0  0  0  0  0  0  0  0  0
    0.6836   -1.9423    9.3540 N   0  0  0  0  0  0  0  0  0  0  0  0
    0.7467   -1.9132   10.8080 C   0  0  0  0  0  0  0  0  0  0  0  0
    0.1720   -0.5896   11.2360 C   0  0  0  0  0  0  0  0  0  0  0  0
    1.8807   -1.9169    8.5635 C   0  0  0  0  0  0  0  0  0  0  0  0
    1.9531   -1.4977    7.2720 N   0  0  0  0  0  0  0  0  0  0  0  0
    3.2151   -1.6058    6.8459 C   0  0  0  0  0  0  0  0  0  0  0  0
    3.8621   -1.3307    5.6405 C   0  0  0  0  0  0  0  0  0  0  0  0
    5.2188   -1.5497    5.4828 C   0  0  0  0  0  0  0  0  0  0  0  0
    5.9449   -2.0514    6.5426 C   0  0  0  0  0  0  0  0  0  0  0  0
    5.2890   -2.3217    7.7396 C   0  0  0  0  0  0  0  0  0  0  0  0
    3.9347   -2.1059    7.9056 C   0  0  0  0  0  0  0  0  0  0  0  0
    3.0871   -2.2680    8.8920 O   0  0  0  0  0  0  0  0  0  0  0  0
   -1.9815    0.4396   11.3346 N   0  0  0  0  0  0  0  0  0  0  0  0
   -1.3637    1.6689   11.7409 C   0  0  0  0  0  0  0  0  0  0  0  0
   -2.6233   -0.4932   12.5863 S   0  0  0  0  0  6  0  0  0  0  0  0
   -3.7114    0.2382   13.3590 O   0  0  0  0  0  0  0  0  0  0  0  0
   -1.6108   -0.8991   13.6168 O   0  0  0  0  0  0  0  0  0  0  0  0
   -3.3008   -1.9611   11.9371 C   0  0  0  0  0  0  0  0  0  0  0  0
   -4.3677   -1.8704   11.0493 C   0  0  0  0  0  0  0  0  0  0  0  0
   -4.9556   -2.9833   10.4999 C   0  0  0  0  0  0  0  0  0  0  0  0
   -4.4993   -4.2384   10.8158 C   0  0  0  0  0  0  0  0  0  0  0  0
   -3.4377   -4.3410   11.6975 C   0  0  0  0  0  0  0  0  0  0  0  0
   -2.8480   -3.2148   12.2498 C   0  0  0  0  0  0  0  0  0  0  0  0
  1  2  1  0
  2  3  1  0
  3  4  1  0
  4  5  1  0
  5  6  1  0
  6  7  1  0
  7  8  1  0
  6  9  1  0
  9 10  2  0
 10 11  1  0
 11 12  2  0
 12 13  1  0
 13 14  2  0
 14 15  1  0
 15 16  2  0
 16 17  1  0
  3 18  1  0
 18 19  1  0
 18 20  1  0
 20 21  2  0
 20 22  2  0
 20 23  1  0
 23 24  2  0
 24 25  1  0
 25 26  2  0
 26 27  1  0
 27 28  2  0
 19  1  1  0
  8  3  1  0
 17  9  1  0
 16 11  1  0
 28 23  1  0
M  END
$$$$
