
     RDKit          3D

 28 32  0  0  0  0  0  0  0  0999 V2000
    0.6315   -4.7193    9.0309 C   0  0  0  0  0  0  0  0  0  0  0  0
   -0.3050   -3.5537    8.9398 C   0  0  0  0  0  0  0  0  0  0  0  0
    0.5520   -2.3298    9.3214 C   0  0  0  0  0  0  0  0  0  0  0  0
   -0.0105   -1.1415    8.6640 C   0  0  0  0  0  0  0  0  0  0  0  0
   -1.2876   -0.6392    9.3190 C   0  0  0  0  0  0  0  0  0  0  0  0
   -1.3795   -1.0441   10.7014 N   0  0  0  0  0  0  0  0  0  0  0  0
   -0.1165   -1.1295   11.4201 C   0  0  0  0  0  0  0  0  0  0  0  0
    0.6481   -2.2732   10.8096 C   0  0  0  0  0  0  0  0  0  0  0  0
   -2.6203   -1.3530   11.3521 C   0  0  0  0  0  0  0  0  0  0  0  0
   -3.7541   -1.7548   10.7181 N   0  0  0  0  0  0  0  0  0  0  0  0
   -4.7153   -1.9569   11.6241 C   0  0  0  0  0  0  0  0  0  0  0  0
   -6.0483   -2.3635   11.5544 C   0  0  0  0  0  0  0  0  0  0  0  0
   -6.8263   -2.4864   12.6917 C   0  0  0  0  0  0  0  0  0  0  0  0
   -6.2686   -2.1995   13.9200 C   0  0  0  0  0  0  0  0  0  0  0  0
   -4.9385   -1.7951   13.9772 C   0  0  0  0  0  0  0  0  0  0  0  0
   -4.1547   -1.6699   12.8465 C   0  0  0  0  0  0  0  0  0  0  0  0
   -2.9129   -1.3189   12.6170 O   0  0  0  0  0  0  0  0  0  0  0  0
    1.8085   -2.7186    8.7697 N   0  0  0  0  0  0  0  0  0  0  0  0
    2.0045   -4.0762    9.1900 C   0  0  0  0  0  0  0  0  0  0  0  0
    3.1210   -1.6883    9.0238 S   0  0  0  0  0  6  0  0  0  0  0  0
    4.2030   -2.3244    9.8842 O   0  0  0  0  0  0  0  0  0  0  0  0
    2.7590   -0.4110    9.7234 O   0  0  0  0  0  0  0  0  0  0  0  0
    3.8246   -1.2447    7.4929 C   0  0  0  0  0  0  0  0  0  0  0  0
    3.9434   -2.2161    6.5045 C   0  0  0  0  0  0  0  0  0  0  0  0
    4.4908   -1.9419    5.2751 C   0  0  0  0  0  0  0  0  0  0  0  0
    4.9433   -0.6801    4.9811 C   0  0  0  0  0  0  0  0  0  0  0  0
    4.8293    0.2947    5.9566 C   0  0  0  0  0  0  0  0  0  0  0  0
    4.2767    0.0130    7.1960 C   0  0  0  0  0  0  0  0  0  0  0  0
  1  2  1  0
  2  3  1  0
  3  4  1  0
  4  5  1  0
  5  6  1  0
  6  7  1  0
  7  8  1  0
  6  9  1  0
  9 10  2  0
 10 11  1  0
 11 12  2  0
 12 13  1  0
 13 14  2  0
 14 15  1  0
 15 16  2  0
 16 17  1  0
  3 18  1  0
 18 19  1  0
 18 20  1  0
 20 21  2  0
 20 22  2  0
 20 23  1  0
 23 24  2  0
 24 25  1  0
 25 26  2  0
 26 27  1  0
 27 28  2  0
 19  1  1  0
  8  3  1  0
 17  9  1  0
 16 11  1  0
 28 23  1  0
M  END
$$$$
