
     RDKit          3D

 28 32  0  0  0  0  0  0  0  0999 V2000
   -2.2941   -3.2737    9.8534 C   0  0  0  0  0  0  0  0  0  0  0  0
   -0.8185   -3.3201   10.1075 C   0  0  0  0  0  0  0  0  0  0  0  0
   -0.5922   -2.3541   11.2880 C   0  0  0  0  0  0  0  0  0  0  0  0
    0.6035   -2.7877   12.0248 C   0  0  0  0  0  0  0  0  0  0  0  0
    1.9040   -2.4565   11.3098 C   0  0  0  0  0  0  0  0  0  0  0  0
    1.7495   -1.3508   10.3949 N   0  0  0  0  0  0  0  0  0  0  0  0
    0.7989   -0.3250   10.7984 C   0  0  0  0  0  0  0  0  0  0  0  0
   -0.5643   -0.9613   10.7525 C   0  0  0  0  0  0  0  0  0  0  0  0
    2.4693   -1.2435    9.1584 C   0  0  0  0  0  0  0  0  0  0  0  0
    3.5037   -2.0439    8.7867 N   0  0  0  0  0  0  0  0  0  0  0  0
    3.9373   -1.6683    7.5797 C   0  0  0  0  0  0  0  0  0  0  0  0
    4.9462   -2.1152    6.7257 C   0  0  0  0  0  0  0  0  0  0  0  0
    5.1738   -1.5148    5.5003 C   0  0  0  0  0  0  0  0  0  0  0  0
    4.3839   -0.4508    5.1179 C   0  0  0  0  0  0  0  0  0  0  0  0
    3.3809   -0.0141    5.9776 C   0  0  0  0  0  0  0  0  0  0  0  0
    3.1470   -0.6080    7.2027 C   0  0  0  0  0  0  0  0  0  0  0  0
    2.2977   -0.4064    8.1804 O   0  0  0  0  0  0  0  0  0  0  0  0
   -1.7961   -2.5660   12.0230 N   0  0  0  0  0  0  0  0  0  0  0  0
   -2.8496   -2.5112   11.0509 C   0  0  0  0  0  0  0  0  0  0  0  0
   -2.0392   -1.6262   13.4037 S   0  0  0  0  0  6  0  0  0  0  0  0
   -0.7522   -1.3868   14.1797 O   0  0  0  0  0  0  0  0  0  0  0  0
   -2.9886   -2.2389   14.3913 O   0  0  0  0  0  0  0  0  0  0  0  0
   -2.7060   -0.0811   12.9528 C   0  0  0  0  0  0  0  0  0  0  0  0
   -1.8462    1.0030   12.8105 C   0  0  0  0  0  0  0  0  0  0  0  0
   -2.2990    2.2516   12.4614 C   0  0  0  0  0  0  0  0  0  0  0  0
   -3.6355    2.4694   12.2382 C   0  0  0  0  0  0  0  0  0  0  0  0
   -4.5002    1.3980   12.3760 C   0  0  0  0  0  0  0  0  0  0  0  0
   -4.0385    0.1397   12.7291 C   0  0  0  0  0  0  0  0  0  0  0  0
  1  2  1  0
  2  3  1  0
  3  4  1  0
  4  5  1  0
  5  6  1  0
  6  7  1  0
  7  8  1  0
  6  9  1  0
  9 10  2  0
 10 11  1  0
 11 12  2  0
 12 13  1  0
 13 14  2  0
 14 15  1  0
 15 16  2  0
 16 17  1  0
  3 18  1  0
 18 19  1  0
 18 20  1  0
 20 21  2  0
 20 22  2  0
 20 23  1  0
 23 24  2  0
 24 25  1  0
 25 26  2  0
 26 27  1  0
 27 28  2  0
 19  1  1  0
  8  3  1  0
 17  9  1  0
 16 11  1  0
 28 23  1  0
M  END
$$$$
