
     RDKit          3D

 28 32  0  0  0  0  0  0  0  0999 V2000
   -1.9236   -3.6714    9.1026 C   0  0  0  0  0  0  0  0  0  0  0  0
   -0.4722   -3.6203    9.4702 C   0  0  0  0  0  0  0  0  0  0  0  0
   -0.4209   -2.7640   10.7516 C   0  0  0  0  0  0  0  0  0  0  0  0
    0.7526   -3.1693   11.5385 C   0  0  0  0  0  0  0  0  0  0  0  0
    2.0661   -2.6599   10.9661 C   0  0  0  0  0  0  0  0  0  0  0  0
    1.8786   -1.4836   10.1509 N   0  0  0  0  0  0  0  0  0  0  0  0
    0.8120   -0.5868   10.5715 C   0  0  0  0  0  0  0  0  0  0  0  0
   -0.4808   -1.3265   10.3548 C   0  0  0  0  0  0  0  0  0  0  0  0
    2.6735   -1.1916    8.9926 C   0  0  0  0  0  0  0  0  0  0  0  0
    2.3082   -0.3509    7.9883 N   0  0  0  0  0  0  0  0  0  0  0  0
    3.2818   -0.3107    7.0738 C   0  0  0  0  0  0  0  0  0  0  0  0
    3.4527    0.3621    5.8634 C   0  0  0  0  0  0  0  0  0  0  0  0
    4.5991    0.2046    5.1052 C   0  0  0  0  0  0  0  0  0  0  0  0
    5.5928   -0.6372    5.5590 C   0  0  0  0  0  0  0  0  0  0  0  0
    5.4114   -1.3026    6.7674 C   0  0  0  0  0  0  0  0  0  0  0  0
    4.2699   -1.1509    7.5306 C   0  0  0  0  0  0  0  0  0  0  0  0
    3.8488   -1.6408    8.6710 O   0  0  0  0  0  0  0  0  0  0  0  0
   -1.6507   -3.1490   11.3630 N   0  0  0  0  0  0  0  0  0  0  0  0
   -2.6315   -3.0836   10.3181 C   0  0  0  0  0  0  0  0  0  0  0  0
   -2.0777   -2.3781   12.8024 S   0  0  0  0  0  6  0  0  0  0  0  0
   -1.6429   -0.9201   12.8337 O   0  0  0  0  0  0  0  0  0  0  0  0
   -1.4669   -2.9996   14.0241 O   0  0  0  0  0  0  0  0  0  0  0  0
   -3.8060   -2.4420   13.0127 C   0  0  0  0  0  0  0  0  0  0  0  0
   -4.5632   -1.3255   12.6739 C   0  0  0  0  0  0  0  0  0  0  0  0
   -5.9289   -1.3005   12.8157 C   0  0  0  0  0  0  0  0  0  0  0  0
   -6.5976   -2.3952   13.3035 C   0  0  0  0  0  0  0  0  0  0  0  0
   -5.8547   -3.5121   13.6431 C   0  0  0  0  0  0  0  0  0  0  0  0
   -4.4764   -3.5324   13.4987 C   0  0  0  0  0  0  0  0  0  0  0  0
  1  2  1  0
  2  3  1  0
  3  4  1  0
  4  5  1  0
  5  6  1  0
  6  7  1  0
  7  8  1  0
  6  9  1  0
  9 10  2  0
 10 11  1  0
 11 12  2  0
 12 13  1  0
 13 14  2  0
 14 15  1  0
 15 16  2  0
 16 17  1  0
  3 18  1  0
 18 19  1  0
 18 20  1  0
 20 21  2  0
 20 22  2  0
 20 23  1  0
 23 24  2  0
 24 25  1  0
 25 26  2  0
 26 27  1  0
 27 28  2  0
 19  1  1  0
  8  3  1  0
 17  9  1  0
 16 11  1  0
 28 23  1  0
M  END
$$$$
