
     RDKit          3D

 28 32  0  0  0  0  0  0  0  0999 V2000
   -1.4564   -3.8502   12.0482 C   0  0  0  0  0  0  0  0  0  0  0  0
   -0.3328   -2.8838   11.8299 C   0  0  0  0  0  0  0  0  0  0  0  0
   -0.9154   -1.8091   10.8899 C   0  0  0  0  0  0  0  0  0  0  0  0
   -0.2016   -0.5457   11.1245 C   0  0  0  0  0  0  0  0  0  0  0  0
    1.1965   -0.5244   10.5269 C   0  0  0  0  0  0  0  0  0  0  0  0
    1.3285   -1.4548    9.4312 N   0  0  0  0  0  0  0  0  0  0  0  0
    0.1364   -1.6468    8.6184 C   0  0  0  0  0  0  0  0  0  0  0  0
   -0.8739   -2.3374    9.4947 C   0  0  0  0  0  0  0  0  0  0  0  0
    2.5418   -2.1628    9.1393 C   0  0  0  0  0  0  0  0  0  0  0  0
    3.7720   -1.8295    9.6130 N   0  0  0  0  0  0  0  0  0  0  0  0
    4.6724   -2.6996    9.1462 C   0  0  0  0  0  0  0  0  0  0  0  0
    6.0519   -2.8469    9.2959 C   0  0  0  0  0  0  0  0  0  0  0  0
    6.7404   -3.8727    8.6734 C   0  0  0  0  0  0  0  0  0  0  0  0
    6.0445   -4.7676    7.8879 C   0  0  0  0  0  0  0  0  0  0  0  0
    4.6693   -4.6108    7.7461 C   0  0  0  0  0  0  0  0  0  0  0  0
    3.9741   -3.5895    8.3642 C   0  0  0  0  0  0  0  0  0  0  0  0
    2.7181   -3.2169    8.4016 O   0  0  0  0  0  0  0  0  0  0  0  0
   -2.2638   -1.7714   11.3533 N   0  0  0  0  0  0  0  0  0  0  0  0
   -2.6696   -3.1436   11.4541 C   0  0  0  0  0  0  0  0  0  0  0  0
   -3.3386   -0.7596   10.5349 S   0  0  0  0  0  6  0  0  0  0  0  0
   -4.4756   -0.2766   11.4237 O   0  0  0  0  0  0  0  0  0  0  0  0
   -4.0051   -1.4118    9.3591 O   0  0  0  0  0  0  0  0  0  0  0  0
   -2.4866    0.6325    9.9254 C   0  0  0  0  0  0  0  0  0  0  0  0
   -2.2703    0.7377    8.5554 C   0  0  0  0  0  0  0  0  0  0  0  0
   -1.6036    1.8035    8.0025 C   0  0  0  0  0  0  0  0  0  0  0  0
   -1.1242    2.8130    8.7990 C   0  0  0  0  0  0  0  0  0  0  0  0
   -1.3344    2.7194   10.1635 C   0  0  0  0  0  0  0  0  0  0  0  0
   -2.0072    1.6415   10.7170 C   0  0  0  0  0  0  0  0  0  0  0  0
  1  2  1  0
  2  3  1  0
  3  4  1  0
  4  5  1  0
  5  6  1  0
  6  7  1  0
  7  8  1  0
  6  9  1  0
  9 10  2  0
 10 11  1  0
 11 12  2  0
 12 13  1  0
 13 14  2  0
 14 15  1  0
 15 16  2  0
 16 17  1  0
  3 18  1  0
 18 19  1  0
 18 20  1  0
 20 21  2  0
 20 22  2  0
 20 23  1  0
 23 24  2  0
 24 25  1  0
 25 26  2  0
 26 27  1  0
 27 28  2  0
 19  1  1  0
  8  3  1  0
 17  9  1  0
 16 11  1  0
 28 23  1  0
M  END
$$$$
