
     RDKit          3D

 28 32  0  0  0  0  0  0  0  0999 V2000
    1.0926   -4.2174    8.2111 C   0  0  0  0  0  0  0  0  0  0  0  0
   -0.1499   -3.3806    8.2022 C   0  0  0  0  0  0  0  0  0  0  0  0
    0.3543   -1.9295    8.0678 C   0  0  0  0  0  0  0  0  0  0  0  0
   -0.6898   -1.1305    7.4104 C   0  0  0  0  0  0  0  0  0  0  0  0
   -1.8585   -0.7981    8.3248 C   0  0  0  0  0  0  0  0  0  0  0  0
   -1.4801   -0.8329    9.7173 N   0  0  0  0  0  0  0  0  0  0  0  0
   -0.1169   -0.4163   10.0122 C   0  0  0  0  0  0  0  0  0  0  0  0
    0.7892   -1.4599    9.4160 C   0  0  0  0  0  0  0  0  0  0  0  0
   -2.3665   -1.2502   10.7655 C   0  0  0  0  0  0  0  0  0  0  0  0
   -2.0319   -2.0903   11.7810 N   0  0  0  0  0  0  0  0  0  0  0  0
   -3.0926   -2.2623   12.5756 C   0  0  0  0  0  0  0  0  0  0  0  0
   -3.3287   -2.9976   13.7377 C   0  0  0  0  0  0  0  0  0  0  0  0
   -4.5638   -2.9868   14.3607 C   0  0  0  0  0  0  0  0  0  0  0  0
   -5.5822   -2.2315   13.8179 C   0  0  0  0  0  0  0  0  0  0  0  0
   -5.3349   -1.5023   12.6589 C   0  0  0  0  0  0  0  0  0  0  0  0
   -4.1046   -1.5075   12.0306 C   0  0  0  0  0  0  0  0  0  0  0  0
   -3.6105   -0.9329   10.9613 O   0  0  0  0  0  0  0  0  0  0  0  0
    1.4943   -2.1335    7.2353 N   0  0  0  0  0  0  0  0  0  0  0  0
    2.1956   -3.2421    7.8161 C   0  0  0  0  0  0  0  0  0  0  0  0
    2.4456   -0.7863    6.8765 S   0  0  0  0  0  6  0  0  0  0  0  0
    1.6449    0.5077    6.8715 O   0  0  0  0  0  0  0  0  0  0  0  0
    3.1004   -0.8518    5.5278 O   0  0  0  0  0  0  0  0  0  0  0  0
    3.7228   -0.6391    8.0523 C   0  0  0  0  0  0  0  0  0  0  0  0
    4.9123   -1.3276    7.8381 C   0  0  0  0  0  0  0  0  0  0  0  0
    5.9612   -1.2631    8.7221 C   0  0  0  0  0  0  0  0  0  0  0  0
    5.8650   -0.5040    9.8613 C   0  0  0  0  0  0  0  0  0  0  0  0
    4.6865    0.1862   10.0845 C   0  0  0  0  0  0  0  0  0  0  0  0
    3.6303    0.1175    9.1897 C   0  0  0  0  0  0  0  0  0  0  0  0
  1  2  1  0
  2  3  1  0
  3  4  1  0
  4  5  1  0
  5  6  1  0
  6  7  1  0
  7  8  1  0
  6  9  1  0
  9 10  2  0
 10 11  1  0
 11 12  2  0
 12 13  1  0
 13 14  2  0
 14 15  1  0
 15 16  2  0
 16 17  1  0
  3 18  1  0
 18 19  1  0
 18 20  1  0
 20 21  2  0
 20 22  2  0
 20 23  1  0
 23 24  2  0
 24 25  1  0
 25 26  2  0
 26 27  1  0
 27 28  2  0
 19  1  1  0
  8  3  1  0
 17  9  1  0
 16 11  1  0
 28 23  1  0
M  END
$$$$
