
     RDKit          3D

 28 32  0  0  0  0  0  0  0  0999 V2000
    1.9119   -4.9866   10.1365 C   0  0  0  0  0  0  0  0  0  0  0  0
    0.8112   -4.1007    9.6386 C   0  0  0  0  0  0  0  0  0  0  0  0
    1.4449   -2.6976    9.5509 C   0  0  0  0  0  0  0  0  0  0  0  0
    0.7403   -1.9300    8.5141 C   0  0  0  0  0  0  0  0  0  0  0  0
   -0.6331   -1.4462    8.9524 C   0  0  0  0  0  0  0  0  0  0  0  0
   -0.7354   -1.3437   10.3886 N   0  0  0  0  0  0  0  0  0  0  0  0
    0.4847   -0.9589   11.0830 C   0  0  0  0  0  0  0  0  0  0  0  0
    1.4503   -2.1017   10.9192 C   0  0  0  0  0  0  0  0  0  0  0  0
   -1.9462   -1.6020   11.1137 C   0  0  0  0  0  0  0  0  0  0  0  0
   -2.9585   -2.4002   10.6812 N   0  0  0  0  0  0  0  0  0  0  0  0
   -3.9269   -2.4181   11.6019 C   0  0  0  0  0  0  0  0  0  0  0  0
   -5.1689   -3.0474   11.6957 C   0  0  0  0  0  0  0  0  0  0  0  0
   -5.9837   -2.8758   12.8003 C   0  0  0  0  0  0  0  0  0  0  0  0
   -5.5559   -2.0637   13.8297 C   0  0  0  0  0  0  0  0  0  0  0  0
   -4.3157   -1.4416   13.7251 C   0  0  0  0  0  0  0  0  0  0  0  0
   -3.4959   -1.6076   12.6257 C   0  0  0  0  0  0  0  0  0  0  0  0
   -2.3165   -1.1555   12.2756 O   0  0  0  0  0  0  0  0  0  0  0  0
    2.7746   -3.0436    9.1685 N   0  0  0  0  0  0  0  0  0  0  0  0
    3.1571   -4.1116   10.0467 C   0  0  0  0  0  0  0  0  0  0  0  0
    3.8946   -1.7887    9.0288 S   0  0  0  0  0  6  0  0  0  0  0  0
    5.3263   -2.2592    9.2402 O   0  0  0  0  0  0  0  0  0  0  0  0
    3.6901   -0.6838   10.0234 O   0  0  0  0  0  0  0  0  0  0  0  0
    3.7787   -1.0715    7.4452 C   0  0  0  0  0  0  0  0  0  0  0  0
    3.0650    0.1132    7.2977 C   0  0  0  0  0  0  0  0  0  0  0  0
    2.9272    0.7344    6.0807 C   0  0  0  0  0  0  0  0  0  0  0  0
    3.5000    0.1956    4.9560 C   0  0  0  0  0  0  0  0  0  0  0  0
    4.2133   -0.9824    5.0909 C   0  0  0  0  0  0  0  0  0  0  0  0
    4.3491   -1.6061    6.3211 C   0  0  0  0  0  0  0  0  0  0  0  0
  1  2  1  0
  2  3  1  0
  3  4  1  0
  4  5  1  0
  5  6  1  0
  6  7  1  0
  7  8  1  0
  6  9  1  0
  9 10  2  0
 10 11  1  0
 11 12  2  0
 12 13  1  0
 13 14  2  0
 14 15  1  0
 15 16  2  0
 16 17  1  0
  3 18  1  0
 18 19  1  0
 18 20  1  0
 20 21  2  0
 20 22  2  0
 20 23  1  0
 23 24  2  0
 24 25  1  0
 25 26  2  0
 26 27  1  0
 27 28  2  0
 19  1  1  0
  8  3  1  0
 17  9  1  0
 16 11  1  0
 28 23  1  0
M  END
$$$$
