
     RDKit          3D

 28 32  0  0  0  0  0  0  0  0999 V2000
    1.1451   -1.7660   13.3408 C   0  0  0  0  0  0  0  0  0  0  0  0
    0.7381   -0.9401   12.1591 C   0  0  0  0  0  0  0  0  0  0  0  0
   -0.5018   -1.6565   11.5869 C   0  0  0  0  0  0  0  0  0  0  0  0
   -1.3412   -0.6634   10.9015 C   0  0  0  0  0  0  0  0  0  0  0  0
   -0.7837   -0.2314    9.5543 C   0  0  0  0  0  0  0  0  0  0  0  0
    0.0919   -1.2295    8.9882 N   0  0  0  0  0  0  0  0  0  0  0  0
   -0.2540   -2.6127    9.2812 C   0  0  0  0  0  0  0  0  0  0  0  0
   -0.0352   -2.8063   10.7577 C   0  0  0  0  0  0  0  0  0  0  0  0
    1.2391   -0.9100    8.1878 C   0  0  0  0  0  0  0  0  0  0  0  0
    2.1867   -1.8015    7.7930 N   0  0  0  0  0  0  0  0  0  0  0  0
    3.1077   -1.1675    7.0611 C   0  0  0  0  0  0  0  0  0  0  0  0
    4.2772   -1.5647    6.4118 C   0  0  0  0  0  0  0  0  0  0  0  0
    5.0560   -0.6620    5.7102 C   0  0  0  0  0  0  0  0  0  0  0  0
    4.6647    0.6593    5.6537 C   0  0  0  0  0  0  0  0  0  0  0  0
    3.4967    1.0437    6.3049 C   0  0  0  0  0  0  0  0  0  0  0  0
    2.7134    0.1488    7.0075 C   0  0  0  0  0  0  0  0  0  0  0  0
    1.6001    0.2355    7.6938 O   0  0  0  0  0  0  0  0  0  0  0  0
   -1.0947   -2.1377   12.7916 N   0  0  0  0  0  0  0  0  0  0  0  0
   -0.0197   -2.7304   13.5340 C   0  0  0  0  0  0  0  0  0  0  0  0
   -2.4825   -3.0876   12.6493 S   0  0  0  0  0  6  0  0  0  0  0  0
   -3.0624   -3.4783   14.0009 O   0  0  0  0  0  0  0  0  0  0  0  0
   -2.2557   -4.3831   11.9265 O   0  0  0  0  0  0  0  0  0  0  0  0
   -3.7009   -2.2178   11.7579 C   0  0  0  0  0  0  0  0  0  0  0  0
   -4.0435   -2.6617   10.4851 C   0  0  0  0  0  0  0  0  0  0  0  0
   -4.9914   -2.0253    9.7218 C   0  0  0  0  0  0  0  0  0  0  0  0
   -5.6396   -0.9148   10.2013 C   0  0  0  0  0  0  0  0  0  0  0  0
   -5.3074   -0.4646   11.4669 C   0  0  0  0  0  0  0  0  0  0  0  0
   -4.3496   -1.1098   12.2333 C   0  0  0  0  0  0  0  0  0  0  0  0
  1  2  1  0
  2  3  1  0
  3  4  1  0
  4  5  1  0
  5  6  1  0
  6  7  1  0
  7  8  1  0
  6  9  1  0
  9 10  2  0
 10 11  1  0
 11 12  2  0
 12 13  1  0
 13 14  2  0
 14 15  1  0
 15 16  2  0
 16 17  1  0
  3 18  1  0
 18 19  1  0
 18 20  1  0
 20 21  2  0
 20 22  2  0
 20 23  1  0
 23 24  2  0
 24 25  1  0
 25 26  2  0
 26 27  1  0
 27 28  2  0
 19  1  1  0
  8  3  1  0
 17  9  1  0
 16 11  1  0
 28 23  1  0
M  END
$$$$
