
     RDKit          3D

 28 32  0  0  0  0  0  0  0  0999 V2000
    1.9397   -0.4496    6.0187 C   0  0  0  0  0  0  0  0  0  0  0  0
    1.7078   -0.2889    7.4899 C   0  0  0  0  0  0  0  0  0  0  0  0
    2.3171   -1.5553    8.1247 C   0  0  0  0  0  0  0  0  0  0  0  0
    2.7377   -1.2350    9.4963 C   0  0  0  0  0  0  0  0  0  0  0  0
    1.5762   -1.1236   10.4714 C   0  0  0  0  0  0  0  0  0  0  0  0
    0.4228   -1.8664   10.0229 N   0  0  0  0  0  0  0  0  0  0  0  0
    0.7062   -3.0887    9.2850 C   0  0  0  0  0  0  0  0  0  0  0  0
    1.3329   -2.6682    7.9828 C   0  0  0  0  0  0  0  0  0  0  0  0
   -0.9281   -1.4505   10.2694 C   0  0  0  0  0  0  0  0  0  0  0  0
   -1.8941   -2.2289   10.8259 N   0  0  0  0  0  0  0  0  0  0  0  0
   -3.0283   -1.5273   10.9104 C   0  0  0  0  0  0  0  0  0  0  0  0
   -4.3116   -1.8054   11.3825 C   0  0  0  0  0  0  0  0  0  0  0  0
   -5.3178   -0.8569   11.3405 C   0  0  0  0  0  0  0  0  0  0  0  0
   -5.0427    0.3900   10.8194 C   0  0  0  0  0  0  0  0  0  0  0  0
   -3.7595    0.6558   10.3518 C   0  0  0  0  0  0  0  0  0  0  0  0
   -2.7491   -0.2855   10.3901 C   0  0  0  0  0  0  0  0  0  0  0  0
   -1.4893   -0.3043   10.0289 O   0  0  0  0  0  0  0  0  0  0  0  0
    3.4217   -1.7714    7.2487 N   0  0  0  0  0  0  0  0  0  0  0  0
    2.8876   -1.6398    5.9238 C   0  0  0  0  0  0  0  0  0  0  0  0
    4.3656   -3.1454    7.5127 S   0  0  0  0  0  6  0  0  0  0  0  0
    5.6883   -3.0967    6.7617 O   0  0  0  0  0  0  0  0  0  0  0  0
    3.7089   -4.4220    7.0753 O   0  0  0  0  0  0  0  0  0  0  0  0
    4.7040   -3.3078    9.2140 C   0  0  0  0  0  0  0  0  0  0  0  0
    5.6092   -2.4311    9.8029 C   0  0  0  0  0  0  0  0  0  0  0  0
    5.9286   -2.5004   11.1368 C   0  0  0  0  0  0  0  0  0  0  0  0
    5.3536   -3.4522   11.9410 C   0  0  0  0  0  0  0  0  0  0  0  0
    4.4508   -4.3293   11.3662 C   0  0  0  0  0  0  0  0  0  0  0  0
    4.1321   -4.2558   10.0193 C   0  0  0  0  0  0  0  0  0  0  0  0
  1  2  1  0
  2  3  1  0
  3  4  1  0
  4  5  1  0
  5  6  1  0
  6  7  1  0
  7  8  1  0
  6  9  1  0
  9 10  2  0
 10 11  1  0
 11 12  2  0
 12 13  1  0
 13 14  2  0
 14 15  1  0
 15 16  2  0
 16 17  1  0
  3 18  1  0
 18 19  1  0
 18 20  1  0
 20 21  2  0
 20 22  2  0
 20 23  1  0
 23 24  2  0
 24 25  1  0
 25 26  2  0
 26 27  1  0
 27 28  2  0
 19  1  1  0
  8  3  1  0
 17  9  1  0
 16 11  1  0
 28 23  1  0
M  END
$$$$
