
     RDKit          3D

 28 32  0  0  0  0  0  0  0  0999 V2000
   -0.8771   -4.4666    9.9200 C   0  0  0  0  0  0  0  0  0  0  0  0
    0.4647   -3.8632   10.2021 C   0  0  0  0  0  0  0  0  0  0  0  0
    0.1711   -2.6685   11.1319 C   0  0  0  0  0  0  0  0  0  0  0  0
    1.3551   -2.4245   11.9681 C   0  0  0  0  0  0  0  0  0  0  0  0
    2.4941   -1.7526   11.2173 C   0  0  0  0  0  0  0  0  0  0  0  0
    2.0220   -1.0148   10.0699 N   0  0  0  0  0  0  0  0  0  0  0  0
    0.7109   -0.3986   10.2108 C   0  0  0  0  0  0  0  0  0  0  0  0
   -0.2857   -1.5236   10.2905 C   0  0  0  0  0  0  0  0  0  0  0  0
    2.7719   -0.8829    8.8538 C   0  0  0  0  0  0  0  0  0  0  0  0
    2.2373   -0.8923    7.6036 N   0  0  0  0  0  0  0  0  0  0  0  0
    3.2169   -0.7457    6.7065 C   0  0  0  0  0  0  0  0  0  0  0  0
    3.2593   -0.6853    5.3131 C   0  0  0  0  0  0  0  0  0  0  0  0
    4.4534   -0.5253    4.6332 C   0  0  0  0  0  0  0  0  0  0  0  0
    5.6261   -0.4239    5.3520 C   0  0  0  0  0  0  0  0  0  0  0  0
    5.5714   -0.4854    6.7410 C   0  0  0  0  0  0  0  0  0  0  0  0
    4.3835   -0.6449    7.4277 C   0  0  0  0  0  0  0  0  0  0  0  0
    4.0518   -0.7331    8.6926 O   0  0  0  0  0  0  0  0  0  0  0  0
   -0.9277   -3.1909   11.8762 N   0  0  0  0  0  0  0  0  0  0  0  0
   -1.8094   -3.7642   10.9006 C   0  0  0  0  0  0  0  0  0  0  0  0
   -1.6623   -2.1673   12.9992 S   0  0  0  0  0  6  0  0  0  0  0  0
   -0.7148   -1.0954   13.5177 O   0  0  0  0  0  0  0  0  0  0  0  0
   -2.1659   -2.8758   14.2226 O   0  0  0  0  0  0  0  0  0  0  0  0
   -3.0352   -1.3821   12.2684 C   0  0  0  0  0  0  0  0  0  0  0  0
   -2.8960   -0.0737   11.8173 C   0  0  0  0  0  0  0  0  0  0  0  0
   -3.9342    0.6107   11.2346 C   0  0  0  0  0  0  0  0  0  0  0  0
   -5.1596    0.0133   11.0771 C   0  0  0  0  0  0  0  0  0  0  0  0
   -5.3095   -1.2886   11.5213 C   0  0  0  0  0  0  0  0  0  0  0  0
   -4.2589   -1.9752   12.1094 C   0  0  0  0  0  0  0  0  0  0  0  0
  1  2  1  0
  2  3  1  0
  3  4  1  0
  4  5  1  0
  5  6  1  0
  6  7  1  0
  7  8  1  0
  6  9  1  0
  9 10  2  0
 10 11  1  0
 11 12  2  0
 12 13  1  0
 13 14  2  0
 14 15  1  0
 15 16  2  0
 16 17  1  0
  3 18  1  0
 18 19  1  0
 18 20  1  0
 20 21  2  0
 20 22  2  0
 20 23  1  0
 23 24  2  0
 24 25  1  0
 25 26  2  0
 26 27  1  0
 27 28  2  0
 19  1  1  0
  8  3  1  0
 17  9  1  0
 16 11  1  0
 28 23  1  0
M  END
$$$$
