
     RDKit          3D

 28 32  0  0  0  0  0  0  0  0999 V2000
   -1.4733   -4.0872    9.3680 C   0  0  0  0  0  0  0  0  0  0  0  0
   -0.0670   -3.7444    9.7538 C   0  0  0  0  0  0  0  0  0  0  0  0
   -0.1897   -2.4429   10.5718 C   0  0  0  0  0  0  0  0  0  0  0  0
    0.9373   -2.3739   11.5129 C   0  0  0  0  0  0  0  0  0  0  0  0
    2.2551   -2.0082   10.8479 C   0  0  0  0  0  0  0  0  0  0  0  0
    2.0541   -1.2874    9.6136 N   0  0  0  0  0  0  0  0  0  0  0  0
    0.8925   -0.4110    9.5757 C   0  0  0  0  0  0  0  0  0  0  0  0
   -0.3193   -1.3026    9.6178 C   0  0  0  0  0  0  0  0  0  0  0  0
    2.9233   -1.4089    8.4786 C   0  0  0  0  0  0  0  0  0  0  0  0
    4.2629   -1.6330    8.5431 N   0  0  0  0  0  0  0  0  0  0  0  0
    4.7580   -1.6920    7.3033 C   0  0  0  0  0  0  0  0  0  0  0  0
    6.0330   -1.8933    6.7733 C   0  0  0  0  0  0  0  0  0  0  0  0
    6.2542   -1.9025    5.4077 C   0  0  0  0  0  0  0  0  0  0  0  0
    5.1885   -1.7077    4.5543 C   0  0  0  0  0  0  0  0  0  0  0  0
    3.9218   -1.5081    5.0944 C   0  0  0  0  0  0  0  0  0  0  0  0
    3.6922   -1.4975    6.4565 C   0  0  0  0  0  0  0  0  0  0  0  0
    2.6351   -1.3364    7.2144 O   0  0  0  0  0  0  0  0  0  0  0  0
   -1.4367   -2.6712   11.2254 N   0  0  0  0  0  0  0  0  0  0  0  0
   -2.3251   -3.1339   10.1985 C   0  0  0  0  0  0  0  0  0  0  0  0
   -2.0422   -1.4324   12.1987 S   0  0  0  0  0  6  0  0  0  0  0  0
   -0.9824   -0.8425   13.1176 O   0  0  0  0  0  0  0  0  0  0  0  0
   -3.1554   -1.8673   13.1063 O   0  0  0  0  0  0  0  0  0  0  0  0
   -2.6757   -0.1550   11.1974 C   0  0  0  0  0  0  0  0  0  0  0  0
   -4.0111   -0.2069   10.8117 C   0  0  0  0  0  0  0  0  0  0  0  0
   -4.5794    0.7612   10.0205 C   0  0  0  0  0  0  0  0  0  0  0  0
   -3.8338    1.8260    9.5807 C   0  0  0  0  0  0  0  0  0  0  0  0
   -2.5042    1.8886    9.9589 C   0  0  0  0  0  0  0  0  0  0  0  0
   -1.9349    0.9089   10.7571 C   0  0  0  0  0  0  0  0  0  0  0  0
  1  2  1  0
  2  3  1  0
  3  4  1  0
  4  5  1  0
  5  6  1  0
  6  7  1  0
  7  8  1  0
  6  9  1  0
  9 10  2  0
 10 11  1  0
 11 12  2  0
 12 13  1  0
 13 14  2  0
 14 15  1  0
 15 16  2  0
 16 17  1  0
  3 18  1  0
 18 19  1  0
 18 20  1  0
 20 21  2  0
 20 22  2  0
 20 23  1  0
 23 24  2  0
 24 25  1  0
 25 26  2  0
 26 27  1  0
 27 28  2  0
 19  1  1  0
  8  3  1  0
 17  9  1  0
 16 11  1  0
 28 23  1  0
M  END
$$$$
