
     RDKit          3D

 28 32  0  0  0  0  0  0  0  0999 V2000
   -3.1688   -2.1404    9.1361 C   0  0  0  0  0  0  0  0  0  0  0  0
   -1.8005   -2.7496    9.1653 C   0  0  0  0  0  0  0  0  0  0  0  0
   -1.3257   -2.5803   10.6227 C   0  0  0  0  0  0  0  0  0  0  0  0
   -0.3686   -3.6527   10.9303 C   0  0  0  0  0  0  0  0  0  0  0  0
    0.9992   -3.4371   10.3020 C   0  0  0  0  0  0  0  0  0  0  0  0
    1.2517   -2.0430   10.0257 N   0  0  0  0  0  0  0  0  0  0  0  0
    0.6679   -1.0969   10.9653 C   0  0  0  0  0  0  0  0  0  0  0  0
   -0.8246   -1.1847   10.7911 C   0  0  0  0  0  0  0  0  0  0  0  0
    2.0211   -1.5880    8.9034 C   0  0  0  0  0  0  0  0  0  0  0  0
    3.2666   -2.0288    8.5820 N   0  0  0  0  0  0  0  0  0  0  0  0
    3.6849   -1.3974    7.4810 C   0  0  0  0  0  0  0  0  0  0  0  0
    4.8508   -1.4446    6.7159 C   0  0  0  0  0  0  0  0  0  0  0  0
    5.0111   -0.6509    5.5943 C   0  0  0  0  0  0  0  0  0  0  0  0
    3.9939    0.2051    5.2274 C   0  0  0  0  0  0  0  0  0  0  0  0
    2.8359    0.2434    5.9979 C   0  0  0  0  0  0  0  0  0  0  0  0
    2.6677   -0.5458    7.1192 C   0  0  0  0  0  0  0  0  0  0  0  0
    1.7116   -0.7066    8.0012 O   0  0  0  0  0  0  0  0  0  0  0  0
   -2.5644   -2.7363   11.3123 N   0  0  0  0  0  0  0  0  0  0  0  0
   -3.4995   -1.9088   10.6062 C   0  0  0  0  0  0  0  0  0  0  0  0
   -2.5505   -2.5405   12.9887 S   0  0  0  0  0  6  0  0  0  0  0  0
   -1.1450   -2.3566   13.5422 O   0  0  0  0  0  0  0  0  0  0  0  0
   -3.1211   -3.7091   13.7376 O   0  0  0  0  0  0  0  0  0  0  0  0
   -3.5010   -1.1471   13.4252 C   0  0  0  0  0  0  0  0  0  0  0  0
   -3.0159   -0.2861   14.4040 C   0  0  0  0  0  0  0  0  0  0  0  0
   -3.7105    0.8295   14.8028 C   0  0  0  0  0  0  0  0  0  0  0  0
   -4.9235    1.1326   14.2371 C   0  0  0  0  0  0  0  0  0  0  0  0
   -5.4157    0.2835   13.2615 C   0  0  0  0  0  0  0  0  0  0  0  0
   -4.7112   -0.8415   12.8627 C   0  0  0  0  0  0  0  0  0  0  0  0
  1  2  1  0
  2  3  1  0
  3  4  1  0
  4  5  1  0
  5  6  1  0
  6  7  1  0
  7  8  1  0
  6  9  1  0
  9 10  2  0
 10 11  1  0
 11 12  2  0
 12 13  1  0
 13 14  2  0
 14 15  1  0
 15 16  2  0
 16 17  1  0
  3 18  1  0
 18 19  1  0
 18 20  1  0
 20 21  2  0
 20 22  2  0
 20 23  1  0
 23 24  2  0
 24 25  1  0
 25 26  2  0
 26 27  1  0
 27 28  2  0
 19  1  1  0
  8  3  1  0
 17  9  1  0
 16 11  1  0
 28 23  1  0
M  END
$$$$
