
     RDKit          3D

 28 32  0  0  0  0  0  0  0  0999 V2000
   -2.4369   -3.3680    9.5262 C   0  0  0  0  0  0  0  0  0  0  0  0
   -0.9668   -3.5134    9.7749 C   0  0  0  0  0  0  0  0  0  0  0  0
   -0.6782   -2.5916   10.9769 C   0  0  0  0  0  0  0  0  0  0  0  0
    0.4888   -3.1171   11.6999 C   0  0  0  0  0  0  0  0  0  0  0  0
    1.8066   -2.8520   10.9890 C   0  0  0  0  0  0  0  0  0  0  0  0
    1.7211   -1.7176   10.1006 N   0  0  0  0  0  0  0  0  0  0  0  0
    0.8378   -0.6435   10.5306 C   0  0  0  0  0  0  0  0  0  0  0  0
   -0.5630   -1.1912   10.4739 C   0  0  0  0  0  0  0  0  0  0  0  0
    2.4444   -1.6271    8.8648 C   0  0  0  0  0  0  0  0  0  0  0  0
    2.0230   -0.9514    7.7627 N   0  0  0  0  0  0  0  0  0  0  0  0
    2.9382   -1.0735    6.7966 C   0  0  0  0  0  0  0  0  0  0  0  0
    3.0381   -0.6053    5.4859 C   0  0  0  0  0  0  0  0  0  0  0  0
    4.1341   -0.9004    4.6951 C   0  0  0  0  0  0  0  0  0  0  0  0
    5.1485   -1.6753    5.2171 C   0  0  0  0  0  0  0  0  0  0  0  0
    5.0380   -2.1365    6.5253 C   0  0  0  0  0  0  0  0  0  0  0  0
    3.9472   -1.8464    7.3217 C   0  0  0  0  0  0  0  0  0  0  0  0
    3.5944   -2.1411    8.5490 O   0  0  0  0  0  0  0  0  0  0  0  0
   -1.8919   -2.7441   11.7103 N   0  0  0  0  0  0  0  0  0  0  0  0
   -2.9413   -2.6002   10.7428 C   0  0  0  0  0  0  0  0  0  0  0  0
   -2.0732   -1.8235   13.1132 S   0  0  0  0  0  6  0  0  0  0  0  0
   -0.8854   -1.9569   14.0551 O   0  0  0  0  0  0  0  0  0  0  0  0
   -3.2724   -2.2016   13.9324 O   0  0  0  0  0  0  0  0  0  0  0  0
   -2.2570   -0.1427   12.6932 C   0  0  0  0  0  0  0  0  0  0  0  0
   -1.3769    0.7843   13.2418 C   0  0  0  0  0  0  0  0  0  0  0  0
   -1.4623    2.1257   12.9603 C   0  0  0  0  0  0  0  0  0  0  0  0
   -2.4343    2.5984   12.1147 C   0  0  0  0  0  0  0  0  0  0  0  0
   -3.3151    1.6852   11.5623 C   0  0  0  0  0  0  0  0  0  0  0  0
   -3.2253    0.3323   11.8499 C   0  0  0  0  0  0  0  0  0  0  0  0
  1  2  1  0
  2  3  1  0
  3  4  1  0
  4  5  1  0
  5  6  1  0
  6  7  1  0
  7  8  1  0
  6  9  1  0
  9 10  2  0
 10 11  1  0
 11 12  2  0
 12 13  1  0
 13 14  2  0
 14 15  1  0
 15 16  2  0
 16 17  1  0
  3 18  1  0
 18 19  1  0
 18 20  1  0
 20 21  2  0
 20 22  2  0
 20 23  1  0
 23 24  2  0
 24 25  1  0
 25 26  2  0
 26 27  1  0
 27 28  2  0
 19  1  1  0
  8  3  1  0
 17  9  1  0
 16 11  1  0
 28 23  1  0
M  END
$$$$
