
     RDKit          3D

 28 32  0  0  0  0  0  0  0  0999 V2000
   -1.2826   -4.4135   10.1253 C   0  0  0  0  0  0  0  0  0  0  0  0
   -0.2424   -3.3904   10.4647 C   0  0  0  0  0  0  0  0  0  0  0  0
   -1.0392   -2.1068   10.7738 C   0  0  0  0  0  0  0  0  0  0  0  0
   -0.2575   -1.2845   11.7083 C   0  0  0  0  0  0  0  0  0  0  0  0
    0.9162   -0.5763   11.0499 C   0  0  0  0  0  0  0  0  0  0  0  0
    0.7117   -0.3983    9.6322 N   0  0  0  0  0  0  0  0  0  0  0  0
   -0.6653   -0.1772    9.2153 C   0  0  0  0  0  0  0  0  0  0  0  0
   -1.4048   -1.4613    9.4788 C   0  0  0  0  0  0  0  0  0  0  0  0
    1.7761   -0.4357    8.6708 C   0  0  0  0  0  0  0  0  0  0  0  0
    1.6243   -0.2513    7.3322 N   0  0  0  0  0  0  0  0  0  0  0  0
    2.8171   -0.3499    6.7377 C   0  0  0  0  0  0  0  0  0  0  0  0
    3.2570   -0.2533    5.4170 C   0  0  0  0  0  0  0  0  0  0  0  0
    4.5918   -0.4062    5.0875 C   0  0  0  0  0  0  0  0  0  0  0  0
    5.5051   -0.6601    6.0892 C   0  0  0  0  0  0  0  0  0  0  0  0
    5.0548   -0.7541    7.4024 C   0  0  0  0  0  0  0  0  0  0  0  0
    3.7239   -0.6026    7.7401 C   0  0  0  0  0  0  0  0  0  0  0  0
    3.0444   -0.6410    8.8602 O   0  0  0  0  0  0  0  0  0  0  0  0
   -2.2015   -2.6699   11.3791 N   0  0  0  0  0  0  0  0  0  0  0  0
   -2.5962   -3.7458   10.5162 C   0  0  0  0  0  0  0  0  0  0  0  0
   -3.4380   -1.6099   11.8221 S   0  0  0  0  0  6  0  0  0  0  0  0
   -4.5794   -2.3141   12.5412 O   0  0  0  0  0  0  0  0  0  0  0  0
   -4.0760   -0.9074   10.6596 O   0  0  0  0  0  0  0  0  0  0  0  0
   -2.8036   -0.3741   12.8737 C   0  0  0  0  0  0  0  0  0  0  0  0
   -2.7321    0.9329   12.4033 C   0  0  0  0  0  0  0  0  0  0  0  0
   -2.2405    1.9587   13.1728 C   0  0  0  0  0  0  0  0  0  0  0  0
   -1.7989    1.7200   14.4500 C   0  0  0  0  0  0  0  0  0  0  0  0
   -1.8661    0.4235   14.9291 C   0  0  0  0  0  0  0  0  0  0  0  0
   -2.3625   -0.6086   14.1484 C   0  0  0  0  0  0  0  0  0  0  0  0
  1  2  1  0
  2  3  1  0
  3  4  1  0
  4  5  1  0
  5  6  1  0
  6  7  1  0
  7  8  1  0
  6  9  1  0
  9 10  2  0
 10 11  1  0
 11 12  2  0
 12 13  1  0
 13 14  2  0
 14 15  1  0
 15 16  2  0
 16 17  1  0
  3 18  1  0
 18 19  1  0
 18 20  1  0
 20 21  2  0
 20 22  2  0
 20 23  1  0
 23 24  2  0
 24 25  1  0
 25 26  2  0
 26 27  1  0
 27 28  2  0
 19  1  1  0
  8  3  1  0
 17  9  1  0
 16 11  1  0
 28 23  1  0
M  END
$$$$
