
     RDKit          3D

 28 32  0  0  0  0  0  0  0  0999 V2000
    1.2518   -2.6005    6.0766 C   0  0  0  0  0  0  0  0  0  0  0  0
    0.5605   -1.5734    6.9200 C   0  0  0  0  0  0  0  0  0  0  0  0
    1.6732   -0.9793    7.8071 C   0  0  0  0  0  0  0  0  0  0  0  0
    1.3019    0.3974    8.1641 C   0  0  0  0  0  0  0  0  0  0  0  0
    0.2122    0.4716    9.2222 C   0  0  0  0  0  0  0  0  0  0  0  0
    0.1636   -0.7232   10.0305 N   0  0  0  0  0  0  0  0  0  0  0  0
    1.4427   -1.3741   10.2736 C   0  0  0  0  0  0  0  0  0  0  0  0
    1.9089   -1.9126    8.9476 C   0  0  0  0  0  0  0  0  0  0  0  0
   -1.0519   -1.2615   10.5705 C   0  0  0  0  0  0  0  0  0  0  0  0
   -2.2558   -0.6296   10.5614 N   0  0  0  0  0  0  0  0  0  0  0  0
   -3.1678   -1.4148   11.1424 C   0  0  0  0  0  0  0  0  0  0  0  0
   -4.5319   -1.2900   11.4081 C   0  0  0  0  0  0  0  0  0  0  0  0
   -5.2386   -2.2945   12.0447 C   0  0  0  0  0  0  0  0  0  0  0  0
   -4.5766   -3.4434   12.4241 C   0  0  0  0  0  0  0  0  0  0  0  0
   -3.2164   -3.5566   12.1538 C   0  0  0  0  0  0  0  0  0  0  0  0
   -2.5033   -2.5585   11.5185 C   0  0  0  0  0  0  0  0  0  0  0  0
   -1.2545   -2.4052   11.1513 O   0  0  0  0  0  0  0  0  0  0  0  0
    2.7744   -1.0331    6.9022 N   0  0  0  0  0  0  0  0  0  0  0  0
    2.7336   -2.3487    6.3316 C   0  0  0  0  0  0  0  0  0  0  0  0
    4.2821   -0.5454    7.4831 S   0  0  0  0  0  6  0  0  0  0  0  0
    4.4511    0.9669    7.4675 O   0  0  0  0  0  0  0  0  0  0  0  0
    5.4371   -1.0810    6.6886 O   0  0  0  0  0  0  0  0  0  0  0  0
    4.4906   -1.1059    9.1195 C   0  0  0  0  0  0  0  0  0  0  0  0
    5.3633   -2.1622    9.3589 C   0  0  0  0  0  0  0  0  0  0  0  0
    5.5759   -2.6604   10.6209 C   0  0  0  0  0  0  0  0  0  0  0  0
    4.9230   -2.1208   11.7007 C   0  0  0  0  0  0  0  0  0  0  0  0
    4.0529   -1.0688   11.4746 C   0  0  0  0  0  0  0  0  0  0  0  0
    3.8412   -0.5699   10.1990 C   0  0  0  0  0  0  0  0  0  0  0  0
  1  2  1  0
  2  3  1  0
  3  4  1  0
  4  5  1  0
  5  6  1  0
  6  7  1  0
  7  8  1  0
  6  9  1  0
  9 10  2  0
 10 11  1  0
 11 12  2  0
 12 13  1  0
 13 14  2  0
 14 15  1  0
 15 16  2  0
 16 17  1  0
  3 18  1  0
 18 19  1  0
 18 20  1  0
 20 21  2  0
 20 22  2  0
 20 23  1  0
 23 24  2  0
 24 25  1  0
 25 26  2  0
 26 27  1  0
 27 28  2  0
 19  1  1  0
  8  3  1  0
 17  9  1  0
 16 11  1  0
 28 23  1  0
M  END
$$$$
