
     RDKit          3D

 28 32  0  0  0  0  0  0  0  0999 V2000
    1.1476   -4.0283   10.8461 C   0  0  0  0  0  0  0  0  0  0  0  0
    0.5725   -3.1713    9.7603 C   0  0  0  0  0  0  0  0  0  0  0  0
    1.7414   -2.2735    9.3071 C   0  0  0  0  0  0  0  0  0  0  0  0
    1.5251   -1.8972    7.9028 C   0  0  0  0  0  0  0  0  0  0  0  0
    0.4468   -0.8403    7.7222 C   0  0  0  0  0  0  0  0  0  0  0  0
    0.2620   -0.0495    8.9155 N   0  0  0  0  0  0  0  0  0  0  0  0
    1.4595    0.1865    9.7088 C   0  0  0  0  0  0  0  0  0  0  0  0
    1.8672   -1.1462   10.2771 C   0  0  0  0  0  0  0  0  0  0  0  0
   -1.0079    0.4801    9.3222 C   0  0  0  0  0  0  0  0  0  0  0  0
   -2.2011    0.1719    8.7475 N   0  0  0  0  0  0  0  0  0  0  0  0
   -3.1749    0.8400    9.3731 C   0  0  0  0  0  0  0  0  0  0  0  0
   -4.5596    0.9133    9.2179 C   0  0  0  0  0  0  0  0  0  0  0  0
   -5.3364    1.7155   10.0345 C   0  0  0  0  0  0  0  0  0  0  0  0
   -4.7249    2.4581   11.0227 C   0  0  0  0  0  0  0  0  0  0  0  0
   -3.3434    2.3768   11.1681 C   0  0  0  0  0  0  0  0  0  0  0  0
   -2.5605    1.5784   10.3571 C   0  0  0  0  0  0  0  0  0  0  0  0
   -1.2781    1.3208   10.2745 O   0  0  0  0  0  0  0  0  0  0  0  0
    2.8329   -3.1770    9.4708 N   0  0  0  0  0  0  0  0  0  0  0  0
    2.6473   -3.7668   10.7653 C   0  0  0  0  0  0  0  0  0  0  0  0
    4.3836   -2.5861    9.1631 S   0  0  0  0  0  6  0  0  0  0  0  0
    5.4273   -3.6920    9.1035 O   0  0  0  0  0  0  0  0  0  0  0  0
    4.8819   -1.6273   10.2045 O   0  0  0  0  0  0  0  0  0  0  0  0
    4.3968   -1.7341    7.6435 C   0  0  0  0  0  0  0  0  0  0  0  0
    4.4544   -2.4696    6.4643 C   0  0  0  0  0  0  0  0  0  0  0  0
    4.4720   -1.8678    5.2300 C   0  0  0  0  0  0  0  0  0  0  0  0
    4.4318   -0.5003    5.1223 C   0  0  0  0  0  0  0  0  0  0  0  0
    4.3735    0.2418    6.2888 C   0  0  0  0  0  0  0  0  0  0  0  0
    4.3566   -0.3700    7.5323 C   0  0  0  0  0  0  0  0  0  0  0  0
  1  2  1  0
  2  3  1  0
  3  4  1  0
  4  5  1  0
  5  6  1  0
  6  7  1  0
  7  8  1  0
  6  9  1  0
  9 10  2  0
 10 11  1  0
 11 12  2  0
 12 13  1  0
 13 14  2  0
 14 15  1  0
 15 16  2  0
 16 17  1  0
  3 18  1  0
 18 19  1  0
 18 20  1  0
 20 21  2  0
 20 22  2  0
 20 23  1  0
 23 24  2  0
 24 25  1  0
 25 26  2  0
 26 27  1  0
 27 28  2  0
 19  1  1  0
  8  3  1  0
 17  9  1  0
 16 11  1  0
 28 23  1  0
M  END
$$$$
