
     RDKit          3D

 28 32  0  0  0  0  0  0  0  0999 V2000
   -0.9833   -4.4295    9.6262 C   0  0  0  0  0  0  0  0  0  0  0  0
    0.3564   -3.8087    9.8789 C   0  0  0  0  0  0  0  0  0  0  0  0
    0.1165   -2.8105   11.0295 C   0  0  0  0  0  0  0  0  0  0  0  0
    1.3718   -2.6475   11.7768 C   0  0  0  0  0  0  0  0  0  0  0  0
    2.3983   -1.7930   11.0498 C   0  0  0  0  0  0  0  0  0  0  0  0
    1.7798   -0.8967   10.1025 N   0  0  0  0  0  0  0  0  0  0  0  0
    0.4679   -0.3890   10.4768 C   0  0  0  0  0  0  0  0  0  0  0  0
   -0.4705   -1.5656   10.4525 C   0  0  0  0  0  0  0  0  0  0  0  0
    2.3915   -0.5152    8.8620 C   0  0  0  0  0  0  0  0  0  0  0  0
    1.7342    0.0308    7.8043 N   0  0  0  0  0  0  0  0  0  0  0  0
    2.6062    0.2636    6.8187 C   0  0  0  0  0  0  0  0  0  0  0  0
    2.5024    0.7970    5.5335 C   0  0  0  0  0  0  0  0  0  0  0  0
    3.6078    0.9191    4.7108 C   0  0  0  0  0  0  0  0  0  0  0  0
    4.8382    0.5029    5.1746 C   0  0  0  0  0  0  0  0  0  0  0  0
    4.9295   -0.0272    6.4578 C   0  0  0  0  0  0  0  0  0  0  0  0
    3.8308   -0.1525    7.2857 C   0  0  0  0  0  0  0  0  0  0  0  0
    3.6359   -0.6028    8.5011 O   0  0  0  0  0  0  0  0  0  0  0  0
   -0.8766   -3.5145   11.7727 N   0  0  0  0  0  0  0  0  0  0  0  0
   -1.8335   -3.9602   10.8014 C   0  0  0  0  0  0  0  0  0  0  0  0
   -1.5277   -2.7427   13.1251 S   0  0  0  0  0  6  0  0  0  0  0  0
   -0.6816   -1.5656   13.5879 O   0  0  0  0  0  0  0  0  0  0  0  0
   -1.6558   -3.6342   14.3255 O   0  0  0  0  0  0  0  0  0  0  0  0
   -3.1272   -2.1594   12.7553 C   0  0  0  0  0  0  0  0  0  0  0  0
   -3.2830   -0.8320   12.3699 C   0  0  0  0  0  0  0  0  0  0  0  0
   -4.5125   -0.3005   12.0667 C   0  0  0  0  0  0  0  0  0  0  0  0
   -5.6420   -1.0769   12.1358 C   0  0  0  0  0  0  0  0  0  0  0  0
   -5.4990   -2.3993   12.5172 C   0  0  0  0  0  0  0  0  0  0  0  0
   -4.2561   -2.9311   12.8228 C   0  0  0  0  0  0  0  0  0  0  0  0
  1  2  1  0
  2  3  1  0
  3  4  1  0
  4  5  1  0
  5  6  1  0
  6  7  1  0
  7  8  1  0
  6  9  1  0
  9 10  2  0
 10 11  1  0
 11 12  2  0
 12 13  1  0
 13 14  2  0
 14 15  1  0
 15 16  2  0
 16 17  1  0
  3 18  1  0
 18 19  1  0
 18 20  1  0
 20 21  2  0
 20 22  2  0
 20 23  1  0
 23 24  2  0
 24 25  1  0
 25 26  2  0
 26 27  1  0
 27 28  2  0
 19  1  1  0
  8  3  1  0
 17  9  1  0
 16 11  1  0
 28 23  1  0
M  END
$$$$
