
     RDKit          3D

 28 32  0  0  0  0  0  0  0  0999 V2000
    1.0430    1.2413    9.7723 C   0  0  0  0  0  0  0  0  0  0  0  0
    0.7087    0.1826   10.7781 C   0  0  0  0  0  0  0  0  0  0  0  0
    1.5054   -1.0571   10.3238 C   0  0  0  0  0  0  0  0  0  0  0  0
    1.7878   -1.8893   11.5021 C   0  0  0  0  0  0  0  0  0  0  0  0
    0.5760   -2.6637   11.9963 C   0  0  0  0  0  0  0  0  0  0  0  0
   -0.3969   -2.8676   10.9496 N   0  0  0  0  0  0  0  0  0  0  0  0
    0.1438   -3.0389    9.6091 C   0  0  0  0  0  0  0  0  0  0  0  0
    0.7504   -1.7178    9.2190 C   0  0  0  0  0  0  0  0  0  0  0  0
   -1.8121   -2.9002   11.1835 C   0  0  0  0  0  0  0  0  0  0  0  0
   -2.5548   -1.8473   11.6177 N   0  0  0  0  0  0  0  0  0  0  0  0
   -3.8319   -2.2259   11.7251 C   0  0  0  0  0  0  0  0  0  0  0  0
   -5.0079   -1.5835   12.1143 C   0  0  0  0  0  0  0  0  0  0  0  0
   -6.2218   -2.2466   12.1299 C   0  0  0  0  0  0  0  0  0  0  0  0
   -6.2669   -3.5723   11.7522 C   0  0  0  0  0  0  0  0  0  0  0  0
   -5.0879   -4.2023   11.3659 C   0  0  0  0  0  0  0  0  0  0  0  0
   -3.8716   -3.5476   11.3474 C   0  0  0  0  0  0  0  0  0  0  0  0
   -2.6440   -3.8868   11.0383 O   0  0  0  0  0  0  0  0  0  0  0  0
    2.6753   -0.4293    9.8027 N   0  0  0  0  0  0  0  0  0  0  0  0
    2.1964    0.6410    8.9764 C   0  0  0  0  0  0  0  0  0  0  0  0
    3.8397   -1.4234    9.0923 S   0  0  0  0  0  6  0  0  0  0  0  0
    3.8245   -2.8356    9.6593 O   0  0  0  0  0  0  0  0  0  0  0  0
    5.2463   -0.9359    9.2817 O   0  0  0  0  0  0  0  0  0  0  0  0
    3.5636   -1.5166    7.3746 C   0  0  0  0  0  0  0  0  0  0  0  0
    2.9504   -2.6522    6.8560 C   0  0  0  0  0  0  0  0  0  0  0  0
    2.7037   -2.7985    5.5130 C   0  0  0  0  0  0  0  0  0  0  0  0
    3.0605   -1.8115    4.6288 C   0  0  0  0  0  0  0  0  0  0  0  0
    3.6705   -0.6766    5.1335 C   0  0  0  0  0  0  0  0  0  0  0  0
    3.9179   -0.5338    6.4897 C   0  0  0  0  0  0  0  0  0  0  0  0
  1  2  1  0
  2  3  1  0
  3  4  1  0
  4  5  1  0
  5  6  1  0
  6  7  1  0
  7  8  1  0
  6  9  1  0
  9 10  2  0
 10 11  1  0
 11 12  2  0
 12 13  1  0
 13 14  2  0
 14 15  1  0
 15 16  2  0
 16 17  1  0
  3 18  1  0
 18 19  1  0
 18 20  1  0
 20 21  2  0
 20 22  2  0
 20 23  1  0
 23 24  2  0
 24 25  1  0
 25 26  2  0
 26 27  1  0
 27 28  2  0
 19  1  1  0
  8  3  1  0
 17  9  1  0
 16 11  1  0
 28 23  1  0
M  END
$$$$
