
     RDKit          3D

 28 32  0  0  0  0  0  0  0  0999 V2000
    2.3137   -2.2626    5.9707 C   0  0  0  0  0  0  0  0  0  0  0  0
    1.9550   -1.0131    6.7151 C   0  0  0  0  0  0  0  0  0  0  0  0
    2.3898   -1.2834    8.1697 C   0  0  0  0  0  0  0  0  0  0  0  0
    2.7015    0.0019    8.8113 C   0  0  0  0  0  0  0  0  0  0  0  0
    1.4648    0.8095    9.1731 C   0  0  0  0  0  0  0  0  0  0  0  0
    0.3011   -0.0294    9.3329 N   0  0  0  0  0  0  0  0  0  0  0  0
    0.5495   -1.3582    9.8726 C   0  0  0  0  0  0  0  0  0  0  0  0
    1.3328   -2.1063    8.8275 C   0  0  0  0  0  0  0  0  0  0  0  0
   -1.0269    0.3897    8.9874 C   0  0  0  0  0  0  0  0  0  0  0  0
   -2.1244   -0.4130    8.9955 N   0  0  0  0  0  0  0  0  0  0  0  0
   -3.1919    0.2998    8.6237 C   0  0  0  0  0  0  0  0  0  0  0  0
   -4.5460    0.0082    8.4551 C   0  0  0  0  0  0  0  0  0  0  0  0
   -5.4474    0.9747    8.0465 C   0  0  0  0  0  0  0  0  0  0  0  0
   -4.9939    2.2538    7.8007 C   0  0  0  0  0  0  0  0  0  0  0  0
   -3.6416    2.5328    7.9723 C   0  0  0  0  0  0  0  0  0  0  0  0
   -2.7349    1.5737    8.3802 C   0  0  0  0  0  0  0  0  0  0  0  0
   -1.4453    1.5611    8.6141 O   0  0  0  0  0  0  0  0  0  0  0  0
    3.5516   -2.0791    7.9431 N   0  0  0  0  0  0  0  0  0  0  0  0
    3.1614   -3.0510    6.9627 C   0  0  0  0  0  0  0  0  0  0  0  0
    4.3451   -2.6994    9.2975 S   0  0  0  0  0  6  0  0  0  0  0  0
    4.5854   -1.6432   10.3664 O   0  0  0  0  0  0  0  0  0  0  0  0
    5.6991   -3.2712    8.9945 O   0  0  0  0  0  0  0  0  0  0  0  0
    3.3981   -3.9842    9.9959 C   0  0  0  0  0  0  0  0  0  0  0  0
    2.5453   -3.6880   11.0540 C   0  0  0  0  0  0  0  0  0  0  0  0
    1.7712   -4.6486   11.6573 C   0  0  0  0  0  0  0  0  0  0  0  0
    1.8169   -5.9506   11.2259 C   0  0  0  0  0  0  0  0  0  0  0  0
    2.6612   -6.2569   10.1731 C   0  0  0  0  0  0  0  0  0  0  0  0
    3.4409   -5.2840    9.5678 C   0  0  0  0  0  0  0  0  0  0  0  0
  1  2  1  0
  2  3  1  0
  3  4  1  0
  4  5  1  0
  5  6  1  0
  6  7  1  0
  7  8  1  0
  6  9  1  0
  9 10  2  0
 10 11  1  0
 11 12  2  0
 12 13  1  0
 13 14  2  0
 14 15  1  0
 15 16  2  0
 16 17  1  0
  3 18  1  0
 18 19  1  0
 18 20  1  0
 20 21  2  0
 20 22  2  0
 20 23  1  0
 23 24  2  0
 24 25  1  0
 25 26  2  0
 26 27  1  0
 27 28  2  0
 19  1  1  0
  8  3  1  0
 17  9  1  0
 16 11  1  0
 28 23  1  0
M  END
$$$$
