
     RDKit          3D

 28 32  0  0  0  0  0  0  0  0999 V2000
   -1.3563   -4.4914   10.5299 C   0  0  0  0  0  0  0  0  0  0  0  0
   -0.2070   -3.5314   10.5689 C   0  0  0  0  0  0  0  0  0  0  0  0
   -0.8577   -2.1354   10.4937 C   0  0  0  0  0  0  0  0  0  0  0  0
    0.0286   -1.1697   11.1588 C   0  0  0  0  0  0  0  0  0  0  0  0
    1.2529   -0.8081   10.3325 C   0  0  0  0  0  0  0  0  0  0  0  0
    1.0328   -1.0203    8.9218 N   0  0  0  0  0  0  0  0  0  0  0  0
   -0.3236   -0.7810    8.4509 C   0  0  0  0  0  0  0  0  0  0  0  0
   -1.1862   -1.8501    9.0661 C   0  0  0  0  0  0  0  0  0  0  0  0
    2.0632   -1.4435    8.0175 C   0  0  0  0  0  0  0  0  0  0  0  0
    3.3976   -1.2917    8.2303 N   0  0  0  0  0  0  0  0  0  0  0  0
    4.0679   -1.7974    7.1906 C   0  0  0  0  0  0  0  0  0  0  0  0
    5.4207   -1.9151    6.8693 C   0  0  0  0  0  0  0  0  0  0  0  0
    5.8335   -2.5001    5.6856 C   0  0  0  0  0  0  0  0  0  0  0  0
    4.8840   -2.9762    4.8059 C   0  0  0  0  0  0  0  0  0  0  0  0
    3.5381   -2.8534    5.1371 C   0  0  0  0  0  0  0  0  0  0  0  0
    3.1174   -2.2707    6.3168 C   0  0  0  0  0  0  0  0  0  0  0  0
    1.9511   -2.0313    6.8649 O   0  0  0  0  0  0  0  0  0  0  0  0
   -2.0569   -2.3751   11.2277 N   0  0  0  0  0  0  0  0  0  0  0  0
   -2.5830   -3.6034   10.7058 C   0  0  0  0  0  0  0  0  0  0  0  0
   -3.1646   -1.1069   11.3420 S   0  0  0  0  0  6  0  0  0  0  0  0
   -3.8917   -1.0870   12.6787 O   0  0  0  0  0  0  0  0  0  0  0  0
   -4.2468   -1.1553   10.3034 O   0  0  0  0  0  0  0  0  0  0  0  0
   -2.3390    0.4142   11.1415 C   0  0  0  0  0  0  0  0  0  0  0  0
   -2.5977    1.1712   10.0037 C   0  0  0  0  0  0  0  0  0  0  0  0
   -1.9824    2.3775    9.7753 C   0  0  0  0  0  0  0  0  0  0  0  0
   -1.0798    2.8799   10.6788 C   0  0  0  0  0  0  0  0  0  0  0  0
   -0.8152    2.1358   11.8151 C   0  0  0  0  0  0  0  0  0  0  0  0
   -1.4383    0.9185   12.0409 C   0  0  0  0  0  0  0  0  0  0  0  0
  1  2  1  0
  2  3  1  0
  3  4  1  0
  4  5  1  0
  5  6  1  0
  6  7  1  0
  7  8  1  0
  6  9  1  0
  9 10  2  0
 10 11  1  0
 11 12  2  0
 12 13  1  0
 13 14  2  0
 14 15  1  0
 15 16  2  0
 16 17  1  0
  3 18  1  0
 18 19  1  0
 18 20  1  0
 20 21  2  0
 20 22  2  0
 20 23  1  0
 23 24  2  0
 24 25  1  0
 25 26  2  0
 26 27  1  0
 27 28  2  0
 19  1  1  0
  8  3  1  0
 17  9  1  0
 16 11  1  0
 28 23  1  0
M  END
$$$$
