
     RDKit          3D

 28 32  0  0  0  0  0  0  0  0999 V2000
   -2.8005   -2.7562    9.6513 C   0  0  0  0  0  0  0  0  0  0  0  0
   -1.3379   -3.0624    9.7580 C   0  0  0  0  0  0  0  0  0  0  0  0
   -0.9140   -2.4858   11.1239 C   0  0  0  0  0  0  0  0  0  0  0  0
    0.2372   -3.2540   11.6191 C   0  0  0  0  0  0  0  0  0  0  0  0
    1.5371   -2.9175   10.9054 C   0  0  0  0  0  0  0  0  0  0  0  0
    1.5061   -1.5970   10.3233 N   0  0  0  0  0  0  0  0  0  0  0  0
    0.7396   -0.6008   11.0573 C   0  0  0  0  0  0  0  0  0  0  0  0
   -0.7039   -1.0168   10.9654 C   0  0  0  0  0  0  0  0  0  0  0  0
    2.1742   -1.2585    9.0995 C   0  0  0  0  0  0  0  0  0  0  0  0
    1.7216   -0.3568    8.1880 N   0  0  0  0  0  0  0  0  0  0  0  0
    2.5878   -0.2867    7.1728 C   0  0  0  0  0  0  0  0  0  0  0  0
    2.6403    0.4477    5.9874 C   0  0  0  0  0  0  0  0  0  0  0  0
    3.6902    0.3083    5.0975 C   0  0  0  0  0  0  0  0  0  0  0  0
    4.7056   -0.5775    5.3916 C   0  0  0  0  0  0  0  0  0  0  0  0
    4.6425   -1.3042    6.5766 C   0  0  0  0  0  0  0  0  0  0  0  0
    3.5979   -1.1710    7.4706 C   0  0  0  0  0  0  0  0  0  0  0  0
    3.2938   -1.7137    8.6242 O   0  0  0  0  0  0  0  0  0  0  0  0
   -2.0997   -2.7264   11.8794 N   0  0  0  0  0  0  0  0  0  0  0  0
   -3.1783   -2.2756   11.0479 C   0  0  0  0  0  0  0  0  0  0  0  0
   -2.1338   -2.1666   13.4713 S   0  0  0  0  0  6  0  0  0  0  0  0
   -0.8171   -2.3976   14.1985 O   0  0  0  0  0  0  0  0  0  0  0  0
   -3.1773   -2.8297   14.3219 O   0  0  0  0  0  0  0  0  0  0  0  0
   -2.4791   -0.4590   13.4863 C   0  0  0  0  0  0  0  0  0  0  0  0
   -3.8017   -0.0428   13.3765 C   0  0  0  0  0  0  0  0  0  0  0  0
   -4.1503    1.2856   13.3770 C   0  0  0  0  0  0  0  0  0  0  0  0
   -3.1875    2.2572   13.4885 C   0  0  0  0  0  0  0  0  0  0  0  0
   -1.8682    1.8548   13.5993 C   0  0  0  0  0  0  0  0  0  0  0  0
   -1.5213    0.5129   13.5977 C   0  0  0  0  0  0  0  0  0  0  0  0
  1  2  1  0
  2  3  1  0
  3  4  1  0
  4  5  1  0
  5  6  1  0
  6  7  1  0
  7  8  1  0
  6  9  1  0
  9 10  2  0
 10 11  1  0
 11 12  2  0
 12 13  1  0
 13 14  2  0
 14 15  1  0
 15 16  2  0
 16 17  1  0
  3 18  1  0
 18 19  1  0
 18 20  1  0
 20 21  2  0
 20 22  2  0
 20 23  1  0
 23 24  2  0
 24 25  1  0
 25 26  2  0
 26 27  1  0
 27 28  2  0
 19  1  1  0
  8  3  1  0
 17  9  1  0
 16 11  1  0
 28 23  1  0
M  END
$$$$
