
     RDKit          3D

 21 23  0  0  0  0  0  0  0  0999 V2000
    2.5451    0.1586    6.4378 C   0  0  0  0  0  0  0  0  0  0  0  0
    3.7021    0.3811    7.1519 C   0  0  0  0  0  0  0  0  0  0  0  0
    3.7365    1.3246    8.1839 C   0  0  0  0  0  0  0  0  0  0  0  0
    2.6017    2.0451    8.4960 C   0  0  0  0  0  0  0  0  0  0  0  0
    1.4525    1.8113    7.7730 C   0  0  0  0  0  0  0  0  0  0  0  0
    1.4260    0.8873    6.7653 C   0  0  0  0  0  0  0  0  0  0  0  0
    2.6414    3.0390    9.5827 C   0  0  0  0  0  0  0  0  0  0  0  0
    1.9107    4.2024    9.4503 C   0  0  0  0  0  0  0  0  0  0  0  0
    1.9838    5.0753   10.4688 N   0  0  0  0  0  0  0  0  0  0  0  0
    2.6848    4.8927   11.5445 N   0  0  0  0  0  0  0  0  0  0  0  0
    3.4104    3.7497   11.6884 C   0  0  0  0  0  0  0  0  0  0  0  0
    3.3571    2.8602   10.6885 N   0  0  0  0  0  0  0  0  0  0  0  0
    4.1808    3.5396   12.8615 N   0  0  0  0  0  0  0  0  0  0  0  0
    1.1176    4.4334    8.2622 C   0  0  0  0  0  0  0  0  0  0  0  0
   -0.2088    4.7792    8.3958 C   0  0  0  0  0  0  0  0  0  0  0  0
   -1.0192    5.0109    7.2904 C   0  0  0  0  0  0  0  0  0  0  0  0
   -0.4898    4.8938    6.0239 C   0  0  0  0  0  0  0  0  0  0  0  0
    0.8403    4.5468    5.9061 C   0  0  0  0  0  0  0  0  0  0  0  0
    1.6391    4.3184    6.9988 C   0  0  0  0  0  0  0  0  0  0  0  0
   -1.2544    5.1140    4.8814 O   0  0  0  0  0  0  0  0  0  0  0  0
   -2.7002    5.4495    7.4524 Cl  0  0  0  0  0  0  0  0  0  0  0  0
  1  2  2  0
  2  3  1  0
  3  4  2  0
  4  5  1  0
  5  6  2  0
  4  7  1  0
  7  8  1  0
  8  9  2  0
  9 10  1  0
 10 11  2  0
 11 12  1  0
 11 13  1  0
  8 14  1  0
 14 15  2  0
 15 16  1  0
 16 17  2  0
 17 18  1  0
 18 19  2  0
 17 20  1  0
 16 21  1  0
  6  1  1  0
 12  7  2  0
 19 14  1  0
M  END
$$$$
