
     RDKit          3D

 21 23  0  0  0  0  0  0  0  0999 V2000
    2.2830    0.0650    6.4968 C   0  0  0  0  0  0  0  0  0  0  0  0
    1.1673    0.7958    6.8418 C   0  0  0  0  0  0  0  0  0  0  0  0
    1.2280    1.7617    7.8517 C   0  0  0  0  0  0  0  0  0  0  0  0
    2.4164    1.9906    8.5148 C   0  0  0  0  0  0  0  0  0  0  0  0
    3.5233    1.2518    8.1584 C   0  0  0  0  0  0  0  0  0  0  0  0
    3.4568    0.3091    7.1701 C   0  0  0  0  0  0  0  0  0  0  0  0
    2.4768    3.0077    9.5789 C   0  0  0  0  0  0  0  0  0  0  0  0
    1.8156    4.2053    9.3958 C   0  0  0  0  0  0  0  0  0  0  0  0
    1.9047    5.0981   10.3956 N   0  0  0  0  0  0  0  0  0  0  0  0
    2.5607    4.9046   11.4975 N   0  0  0  0  0  0  0  0  0  0  0  0
    3.2175    3.7279   11.6914 C   0  0  0  0  0  0  0  0  0  0  0  0
    3.1467    2.8180   10.7112 N   0  0  0  0  0  0  0  0  0  0  0  0
    3.9383    3.5057   12.8935 N   0  0  0  0  0  0  0  0  0  0  0  0
    1.0738    4.4492    8.1776 C   0  0  0  0  0  0  0  0  0  0  0  0
   -0.2326    4.8772    8.2599 C   0  0  0  0  0  0  0  0  0  0  0  0
   -0.9941    5.1252    7.1237 C   0  0  0  0  0  0  0  0  0  0  0  0
   -0.4351    4.9407    5.8780 C   0  0  0  0  0  0  0  0  0  0  0  0
    0.8746    4.5117    5.8117 C   0  0  0  0  0  0  0  0  0  0  0  0
    1.6250    4.2673    6.9348 C   0  0  0  0  0  0  0  0  0  0  0  0
   -1.1504    5.1734    4.7065 O   0  0  0  0  0  0  0  0  0  0  0  0
   -2.6496    5.6678    7.2207 Cl  0  0  0  0  0  0  0  0  0  0  0  0
  1  2  2  0
  2  3  1  0
  3  4  2  0
  4  5  1  0
  5  6  2  0
  4  7  1  0
  7  8  1  0
  8  9  2  0
  9 10  1  0
 10 11  2  0
 11 12  1  0
 11 13  1  0
  8 14  1  0
 14 15  2  0
 15 16  1  0
 16 17  2  0
 17 18  1  0
 18 19  2  0
 17 20  1  0
 16 21  1  0
  6  1  1  0
 12  7  2  0
 19 14  1  0
M  END
$$$$
