
     RDKit          3D

 21 23  0  0  0  0  0  0  0  0999 V2000
    2.9455    0.2607    6.7513 C   0  0  0  0  0  0  0  0  0  0  0  0
    2.3863    1.4677    6.3927 C   0  0  0  0  0  0  0  0  0  0  0  0
    2.2773    2.5098    7.3194 C   0  0  0  0  0  0  0  0  0  0  0  0
    2.7331    2.3340    8.6100 C   0  0  0  0  0  0  0  0  0  0  0  0
    3.2898    1.1214    8.9532 C   0  0  0  0  0  0  0  0  0  0  0  0
    3.3932    0.1068    8.0422 C   0  0  0  0  0  0  0  0  0  0  0  0
    2.6158    3.4330    9.5839 C   0  0  0  0  0  0  0  0  0  0  0  0
    1.6025    4.3572    9.4286 C   0  0  0  0  0  0  0  0  0  0  0  0
    1.5420    5.3397   10.3427 N   0  0  0  0  0  0  0  0  0  0  0  0
    2.3613    5.4673   11.3399 N   0  0  0  0  0  0  0  0  0  0  0  0
    3.3654    4.5629   11.5052 C   0  0  0  0  0  0  0  0  0  0  0  0
    3.4510    3.5716   10.6087 N   0  0  0  0  0  0  0  0  0  0  0  0
    4.2675    4.6930   12.5930 N   0  0  0  0  0  0  0  0  0  0  0  0
    0.6719    4.2398    8.3267 C   0  0  0  0  0  0  0  0  0  0  0  0
    0.4560    5.3274    7.5100 C   0  0  0  0  0  0  0  0  0  0  0  0
   -0.4278    5.2734    6.4382 C   0  0  0  0  0  0  0  0  0  0  0  0
   -1.1100    4.1049    6.1790 C   0  0  0  0  0  0  0  0  0  0  0  0
   -0.8832    3.0240    7.0059 C   0  0  0  0  0  0  0  0  0  0  0  0
   -0.0102    3.0792    8.0637 C   0  0  0  0  0  0  0  0  0  0  0  0
   -2.0070    3.9937    5.1200 O   0  0  0  0  0  0  0  0  0  0  0  0
   -0.7058    6.6474    5.3994 Cl  0  0  0  0  0  0  0  0  0  0  0  0
  1  2  2  0
  2  3  1  0
  3  4  2  0
  4  5  1  0
  5  6  2  0
  4  7  1  0
  7  8  1  0
  8  9  2  0
  9 10  1  0
 10 11  2  0
 11 12  1  0
 11 13  1  0
  8 14  1  0
 14 15  2  0
 15 16  1  0
 16 17  2  0
 17 18  1  0
 18 19  2  0
 17 20  1  0
 16 21  1  0
  6  1  1  0
 12  7  2  0
 19 14  1  0
M  END
$$$$
