
     RDKit          3D

 21 23  0  0  0  0  0  0  0  0999 V2000
    2.3713   -0.0124    6.4499 C   0  0  0  0  0  0  0  0  0  0  0  0
    1.2302    0.6730    6.8047 C   0  0  0  0  0  0  0  0  0  0  0  0
    1.2642    1.6518    7.8034 C   0  0  0  0  0  0  0  0  0  0  0  0
    2.4514    1.9395    8.4453 C   0  0  0  0  0  0  0  0  0  0  0  0
    3.5839    1.2456    8.0792 C   0  0  0  0  0  0  0  0  0  0  0  0
    3.5435    0.2899    7.1020 C   0  0  0  0  0  0  0  0  0  0  0  0
    2.4837    2.9700    9.4976 C   0  0  0  0  0  0  0  0  0  0  0  0
    1.7738    4.1386    9.3094 C   0  0  0  0  0  0  0  0  0  0  0  0
    1.8389    5.0453   10.2985 N   0  0  0  0  0  0  0  0  0  0  0  0
    2.5143    4.8901   11.3947 N   0  0  0  0  0  0  0  0  0  0  0  0
    3.2191    3.7423   11.5935 C   0  0  0  0  0  0  0  0  0  0  0  0
    3.1732    2.8194   10.6241 N   0  0  0  0  0  0  0  0  0  0  0  0
    3.9615    3.5620   12.7895 N   0  0  0  0  0  0  0  0  0  0  0  0
    1.0094    4.3396    8.0973 C   0  0  0  0  0  0  0  0  0  0  0  0
   -0.3090    4.7267    8.1901 C   0  0  0  0  0  0  0  0  0  0  0  0
   -1.0922    4.9325    7.0602 C   0  0  0  0  0  0  0  0  0  0  0  0
   -0.5431    4.7465    5.8104 C   0  0  0  0  0  0  0  0  0  0  0  0
    0.7787    4.3587    5.7336 C   0  0  0  0  0  0  0  0  0  0  0  0
    1.5506    4.1560    6.8504 C   0  0  0  0  0  0  0  0  0  0  0  0
   -1.2802    4.9379    4.6448 O   0  0  0  0  0  0  0  0  0  0  0  0
   -2.7629    5.4232    7.1705 Cl  0  0  0  0  0  0  0  0  0  0  0  0
  1  2  2  0
  2  3  1  0
  3  4  2  0
  4  5  1  0
  5  6  2  0
  4  7  1  0
  7  8  1  0
  8  9  2  0
  9 10  1  0
 10 11  2  0
 11 12  1  0
 11 13  1  0
  8 14  1  0
 14 15  2  0
 15 16  1  0
 16 17  2  0
 17 18  1  0
 18 19  2  0
 17 20  1  0
 16 21  1  0
  6  1  1  0
 12  7  2  0
 19 14  1  0
M  END
$$$$
