
     RDKit          3D

 21 23  0  0  0  0  0  0  0  0999 V2000
    2.2074    0.3618    6.4712 C   0  0  0  0  0  0  0  0  0  0  0  0
    3.4082    0.7656    7.0123 C   0  0  0  0  0  0  0  0  0  0  0  0
    3.4473    1.7065    8.0466 C   0  0  0  0  0  0  0  0  0  0  0  0
    2.2729    2.2411    8.5357 C   0  0  0  0  0  0  0  0  0  0  0  0
    1.0801    1.8272    7.9844 C   0  0  0  0  0  0  0  0  0  0  0  0
    1.0492    0.9069    6.9734 C   0  0  0  0  0  0  0  0  0  0  0  0
    2.3175    3.2328    9.6243 C   0  0  0  0  0  0  0  0  0  0  0  0
    1.4746    4.3243    9.5678 C   0  0  0  0  0  0  0  0  0  0  0  0
    1.5573    5.1987   10.5842 N   0  0  0  0  0  0  0  0  0  0  0  0
    2.3644    5.0795   11.5924 N   0  0  0  0  0  0  0  0  0  0  0  0
    3.2013    4.0078   11.6610 C   0  0  0  0  0  0  0  0  0  0  0  0
    3.1414    3.1188   10.6612 N   0  0  0  0  0  0  0  0  0  0  0  0
    4.0883    3.8676   12.7599 N   0  0  0  0  0  0  0  0  0  0  0  0
    0.5619    4.4832    8.4562 C   0  0  0  0  0  0  0  0  0  0  0  0
    1.0601    4.4881    7.1723 C   0  0  0  0  0  0  0  0  0  0  0  0
    0.2312    4.6393    6.0666 C   0  0  0  0  0  0  0  0  0  0  0  0
   -1.1260    4.7888    6.2508 C   0  0  0  0  0  0  0  0  0  0  0  0
   -1.6101    4.7819    7.5428 C   0  0  0  0  0  0  0  0  0  0  0  0
   -0.7901    4.6324    8.6334 C   0  0  0  0  0  0  0  0  0  0  0  0
   -2.0030    4.9440    5.1807 O   0  0  0  0  0  0  0  0  0  0  0  0
    0.8556    4.6462    4.4374 Cl  0  0  0  0  0  0  0  0  0  0  0  0
  1  2  2  0
  2  3  1  0
  3  4  2  0
  4  5  1  0
  5  6  2  0
  4  7  1  0
  7  8  1  0
  8  9  2  0
  9 10  1  0
 10 11  2  0
 11 12  1  0
 11 13  1  0
  8 14  1  0
 14 15  2  0
 15 16  1  0
 16 17  2  0
 17 18  1  0
 18 19  2  0
 17 20  1  0
 16 21  1  0
  6  1  1  0
 12  7  2  0
 19 14  1  0
M  END
$$$$
