
     RDKit          3D

 21 23  0  0  0  0  0  0  0  0999 V2000
    2.6047    0.2873    6.4301 C   0  0  0  0  0  0  0  0  0  0  0  0
    1.9966    1.4990    6.1851 C   0  0  0  0  0  0  0  0  0  0  0  0
    2.0393    2.5263    7.1334 C   0  0  0  0  0  0  0  0  0  0  0  0
    2.6965    2.3309    8.3310 C   0  0  0  0  0  0  0  0  0  0  0  0
    3.2997    1.1139    8.5612 C   0  0  0  0  0  0  0  0  0  0  0  0
    3.2540    0.1138    7.6296 C   0  0  0  0  0  0  0  0  0  0  0  0
    2.7387    3.4144    9.3283 C   0  0  0  0  0  0  0  0  0  0  0  0
    1.7739    4.4004    9.2838 C   0  0  0  0  0  0  0  0  0  0  0  0
    1.8598    5.3655   10.2143 N   0  0  0  0  0  0  0  0  0  0  0  0
    2.7753    5.4231   11.1311 N   0  0  0  0  0  0  0  0  0  0  0  0
    3.7331    4.4571   11.1867 C   0  0  0  0  0  0  0  0  0  0  0  0
    3.6733    3.4815   10.2712 N   0  0  0  0  0  0  0  0  0  0  0  0
    4.7395    4.5105   12.1859 N   0  0  0  0  0  0  0  0  0  0  0  0
    0.7386    4.3618    8.2735 C   0  0  0  0  0  0  0  0  0  0  0  0
    0.5983    5.4280    7.4133 C   0  0  0  0  0  0  0  0  0  0  0  0
   -0.3793    5.4469    6.4252 C   0  0  0  0  0  0  0  0  0  0  0  0
   -1.2349    4.3749    6.2959 C   0  0  0  0  0  0  0  0  0  0  0  0
   -1.0820    3.3142    7.1649 C   0  0  0  0  0  0  0  0  0  0  0  0
   -0.1160    3.2973    8.1400 C   0  0  0  0  0  0  0  0  0  0  0  0
   -2.2322    4.3397    5.3250 O   0  0  0  0  0  0  0  0  0  0  0  0
   -0.5625    6.7943    5.3318 Cl  0  0  0  0  0  0  0  0  0  0  0  0
  1  2  2  0
  2  3  1  0
  3  4  2  0
  4  5  1  0
  5  6  2  0
  4  7  1  0
  7  8  1  0
  8  9  2  0
  9 10  1  0
 10 11  2  0
 11 12  1  0
 11 13  1  0
  8 14  1  0
 14 15  2  0
 15 16  1  0
 16 17  2  0
 17 18  1  0
 18 19  2  0
 17 20  1  0
 16 21  1  0
  6  1  1  0
 12  7  2  0
 19 14  1  0
M  END
$$$$
