
     RDKit          3D

 21 23  0  0  0  0  0  0  0  0999 V2000
    2.6185    0.1292    6.4538 C   0  0  0  0  0  0  0  0  0  0  0  0
    1.4194    0.6729    6.8595 C   0  0  0  0  0  0  0  0  0  0  0  0
    1.3734    1.6155    7.8919 C   0  0  0  0  0  0  0  0  0  0  0  0
    2.5391    2.0103    8.5162 C   0  0  0  0  0  0  0  0  0  0  0  0
    3.7301    1.4576    8.0992 C   0  0  0  0  0  0  0  0  0  0  0  0
    3.7678    0.5365    7.0892 C   0  0  0  0  0  0  0  0  0  0  0  0
    2.4872    3.0023    9.6041 C   0  0  0  0  0  0  0  0  0  0  0  0
    1.7353    4.1464    9.4288 C   0  0  0  0  0  0  0  0  0  0  0  0
    1.7239    5.0185   10.4505 N   0  0  0  0  0  0  0  0  0  0  0  0
    2.3635    4.8518   11.5663 N   0  0  0  0  0  0  0  0  0  0  0  0
    3.1090    3.7280   11.7527 C   0  0  0  0  0  0  0  0  0  0  0  0
    3.1395    2.8397   10.7508 N   0  0  0  0  0  0  0  0  0  0  0  0
    3.8127    3.5354   12.9700 N   0  0  0  0  0  0  0  0  0  0  0  0
    1.0093    4.3592    8.1953 C   0  0  0  0  0  0  0  0  0  0  0  0
    0.0268    5.3233    8.1510 C   0  0  0  0  0  0  0  0  0  0  0  0
   -0.7042    5.5701    6.9947 C   0  0  0  0  0  0  0  0  0  0  0  0
   -0.4457    4.8355    5.8582 C   0  0  0  0  0  0  0  0  0  0  0  0
    0.5413    3.8733    5.9180 C   0  0  0  0  0  0  0  0  0  0  0  0
    1.2622    3.6311    7.0608 C   0  0  0  0  0  0  0  0  0  0  0  0
   -1.1465    5.0395    4.6726 O   0  0  0  0  0  0  0  0  0  0  0  0
   -1.9500    6.7901    6.9315 Cl  0  0  0  0  0  0  0  0  0  0  0  0
  1  2  2  0
  2  3  1  0
  3  4  2  0
  4  5  1  0
  5  6  2  0
  4  7  1  0
  7  8  1  0
  8  9  2  0
  9 10  1  0
 10 11  2  0
 11 12  1  0
 11 13  1  0
  8 14  1  0
 14 15  2  0
 15 16  1  0
 16 17  2  0
 17 18  1  0
 18 19  2  0
 17 20  1  0
 16 21  1  0
  6  1  1  0
 12  7  2  0
 19 14  1  0
M  END
$$$$
