
     RDKit          3D

 21 23  0  0  0  0  0  0  0  0999 V2000
    3.4008    0.2617    6.9371 C   0  0  0  0  0  0  0  0  0  0  0  0
    3.2063    1.5566    6.5087 C   0  0  0  0  0  0  0  0  0  0  0  0
    2.9343    2.5800    7.4226 C   0  0  0  0  0  0  0  0  0  0  0  0
    2.8583    2.2966    8.7710 C   0  0  0  0  0  0  0  0  0  0  0  0
    3.0552    0.9971    9.1838 C   0  0  0  0  0  0  0  0  0  0  0  0
    3.3207    0.0014    8.2848 C   0  0  0  0  0  0  0  0  0  0  0  0
    2.5705    3.3765    9.7309 C   0  0  0  0  0  0  0  0  0  0  0  0
    1.6337    4.3337    9.3976 C   0  0  0  0  0  0  0  0  0  0  0  0
    1.4109    5.2967   10.3073 N   0  0  0  0  0  0  0  0  0  0  0  0
    2.0110    5.3773   11.4542 N   0  0  0  0  0  0  0  0  0  0  0  0
    2.9372    4.4399   11.7960 C   0  0  0  0  0  0  0  0  0  0  0  0
    3.1807    3.4670   10.9084 N   0  0  0  0  0  0  0  0  0  0  0  0
    3.5997    4.5186   13.0486 N   0  0  0  0  0  0  0  0  0  0  0  0
    0.9465    4.2689    8.1257 C   0  0  0  0  0  0  0  0  0  0  0  0
    0.4095    3.0702    7.7119 C   0  0  0  0  0  0  0  0  0  0  0  0
   -0.2592    2.9481    6.4993 C   0  0  0  0  0  0  0  0  0  0  0  0
   -0.3929    4.0503    5.6836 C   0  0  0  0  0  0  0  0  0  0  0  0
    0.1503    5.2441    6.1118 C   0  0  0  0  0  0  0  0  0  0  0  0
    0.8103    5.3628    7.3095 C   0  0  0  0  0  0  0  0  0  0  0  0
   -1.0522    3.9863    4.4590 O   0  0  0  0  0  0  0  0  0  0  0  0
   -0.9423    1.4327    5.9689 Cl  0  0  0  0  0  0  0  0  0  0  0  0
  1  2  2  0
  2  3  1  0
  3  4  2  0
  4  5  1  0
  5  6  2  0
  4  7  1  0
  7  8  1  0
  8  9  2  0
  9 10  1  0
 10 11  2  0
 11 12  1  0
 11 13  1  0
  8 14  1  0
 14 15  2  0
 15 16  1  0
 16 17  2  0
 17 18  1  0
 18 19  2  0
 17 20  1  0
 16 21  1  0
  6  1  1  0
 12  7  2  0
 19 14  1  0
M  END
$$$$
