
     RDKit          3D

 21 23  0  0  0  0  0  0  0  0999 V2000
    1.4778    0.6326    6.5603 C   0  0  0  0  0  0  0  0  0  0  0  0
    1.4641    1.9850    6.2979 C   0  0  0  0  0  0  0  0  0  0  0  0
    1.7735    2.9118    7.2988 C   0  0  0  0  0  0  0  0  0  0  0  0
    2.0972    2.4736    8.5667 C   0  0  0  0  0  0  0  0  0  0  0  0
    2.1067    1.1182    8.8134 C   0  0  0  0  0  0  0  0  0  0  0  0
    1.8031    0.2176    7.8301 C   0  0  0  0  0  0  0  0  0  0  0  0
    2.4214    3.4523    9.6190 C   0  0  0  0  0  0  0  0  0  0  0  0
    1.8140    4.6913    9.5882 C   0  0  0  0  0  0  0  0  0  0  0  0
    2.1464    5.5463   10.5696 N   0  0  0  0  0  0  0  0  0  0  0  0
    2.9854    5.2813   11.5224 N   0  0  0  0  0  0  0  0  0  0  0  0
    3.5918    4.0631   11.5650 C   0  0  0  0  0  0  0  0  0  0  0  0
    3.2800    3.1893   10.5991 N   0  0  0  0  0  0  0  0  0  0  0  0
    4.5114    3.7626   12.6033 N   0  0  0  0  0  0  0  0  0  0  0  0
    0.8721    5.0151    8.5385 C   0  0  0  0  0  0  0  0  0  0  0  0
   -0.3024    4.3020    8.4453 C   0  0  0  0  0  0  0  0  0  0  0  0
   -1.2429    4.5675    7.4567 C   0  0  0  0  0  0  0  0  0  0  0  0
   -1.0018    5.5688    6.5416 C   0  0  0  0  0  0  0  0  0  0  0  0
    0.1791    6.2744    6.6478 C   0  0  0  0  0  0  0  0  0  0  0  0
    1.1066    6.0108    7.6247 C   0  0  0  0  0  0  0  0  0  0  0  0
   -1.9077    5.8781    5.5305 O   0  0  0  0  0  0  0  0  0  0  0  0
   -2.7329    3.6683    7.3330 Cl  0  0  0  0  0  0  0  0  0  0  0  0
  1  2  2  0
  2  3  1  0
  3  4  2  0
  4  5  1  0
  5  6  2  0
  4  7  1  0
  7  8  1  0
  8  9  2  0
  9 10  1  0
 10 11  2  0
 11 12  1  0
 11 13  1  0
  8 14  1  0
 14 15  2  0
 15 16  1  0
 16 17  2  0
 17 18  1  0
 18 19  2  0
 17 20  1  0
 16 21  1  0
  6  1  1  0
 12  7  2  0
 19 14  1  0
M  END
$$$$
