
     RDKit          3D

 21 23  0  0  0  0  0  0  0  0999 V2000
    2.6791    0.2242    6.2917 C   0  0  0  0  0  0  0  0  0  0  0  0
    3.8278    0.4691    7.0119 C   0  0  0  0  0  0  0  0  0  0  0  0
    3.8316    1.3940    8.0611 C   0  0  0  0  0  0  0  0  0  0  0  0
    2.6747    2.0732    8.3845 C   0  0  0  0  0  0  0  0  0  0  0  0
    1.5342    1.8173    7.6552 C   0  0  0  0  0  0  0  0  0  0  0  0
    1.5376    0.9117    6.6306 C   0  0  0  0  0  0  0  0  0  0  0  0
    2.6823    3.0476    9.4893 C   0  0  0  0  0  0  0  0  0  0  0  0
    1.9870    4.2306    9.3409 C   0  0  0  0  0  0  0  0  0  0  0  0
    2.0286    5.0844   10.3771 N   0  0  0  0  0  0  0  0  0  0  0  0
    2.6691    4.8667   11.4836 N   0  0  0  0  0  0  0  0  0  0  0  0
    3.3591    3.7041   11.6436 C   0  0  0  0  0  0  0  0  0  0  0  0
    3.3361    2.8329   10.6267 N   0  0  0  0  0  0  0  0  0  0  0  0
    4.0634    3.4556   12.8504 N   0  0  0  0  0  0  0  0  0  0  0  0
    1.2614    4.5007    8.1184 C   0  0  0  0  0  0  0  0  0  0  0  0
   -0.0518    4.9093    8.1921 C   0  0  0  0  0  0  0  0  0  0  0  0
   -0.7985    5.1808    7.0514 C   0  0  0  0  0  0  0  0  0  0  0  0
   -0.2174    5.0402    5.8101 C   0  0  0  0  0  0  0  0  0  0  0  0
    1.0987    4.6302    5.7524 C   0  0  0  0  0  0  0  0  0  0  0  0
    1.8344    4.3625    6.8799 C   0  0  0  0  0  0  0  0  0  0  0  0
   -0.9172    5.2980    4.6345 O   0  0  0  0  0  0  0  0  0  0  0  0
   -2.4623    5.6990    7.1375 Cl  0  0  0  0  0  0  0  0  0  0  0  0
  1  2  2  0
  2  3  1  0
  3  4  2  0
  4  5  1  0
  5  6  2  0
  4  7  1  0
  7  8  1  0
  8  9  2  0
  9 10  1  0
 10 11  2  0
 11 12  1  0
 11 13  1  0
  8 14  1  0
 14 15  2  0
 15 16  1  0
 16 17  2  0
 17 18  1  0
 18 19  2  0
 17 20  1  0
 16 21  1  0
  6  1  1  0
 12  7  2  0
 19 14  1  0
M  END
$$$$
