
     RDKit          3D

 21 23  0  0  0  0  0  0  0  0999 V2000
    2.5883    0.3475    6.3027 C   0  0  0  0  0  0  0  0  0  0  0  0
    1.4361    0.9776    6.7190 C   0  0  0  0  0  0  0  0  0  0  0  0
    1.4582    1.8750    7.7917 C   0  0  0  0  0  0  0  0  0  0  0  0
    2.6448    2.1371    8.4457 C   0  0  0  0  0  0  0  0  0  0  0  0
    3.7884    1.4993    8.0176 C   0  0  0  0  0  0  0  0  0  0  0  0
    3.7596    0.6230    6.9681 C   0  0  0  0  0  0  0  0  0  0  0  0
    2.6646    3.0818    9.5759 C   0  0  0  0  0  0  0  0  0  0  0  0
    1.9204    4.2410    9.4901 C   0  0  0  0  0  0  0  0  0  0  0  0
    1.9755    5.0683   10.5470 N   0  0  0  0  0  0  0  0  0  0  0  0
    2.6711    4.8462   11.6188 N   0  0  0  0  0  0  0  0  0  0  0  0
    3.4098    3.7067   11.7170 C   0  0  0  0  0  0  0  0  0  0  0  0
    3.3746    2.8623   10.6781 N   0  0  0  0  0  0  0  0  0  0  0  0
    4.1745    3.4537   12.8854 N   0  0  0  0  0  0  0  0  0  0  0  0
    1.1328    4.5153    8.3075 C   0  0  0  0  0  0  0  0  0  0  0  0
   -0.1858    4.8866    8.4489 C   0  0  0  0  0  0  0  0  0  0  0  0
   -0.9907    5.1602    7.3490 C   0  0  0  0  0  0  0  0  0  0  0  0
   -0.4635    5.0597    6.0801 C   0  0  0  0  0  0  0  0  0  0  0  0
    0.8589    4.6867    5.9545 C   0  0  0  0  0  0  0  0  0  0  0  0
    1.6521    4.4170    7.0418 C   0  0  0  0  0  0  0  0  0  0  0  0
   -1.2228    5.3216    4.9429 O   0  0  0  0  0  0  0  0  0  0  0  0
   -2.6618    5.6313    7.5209 Cl  0  0  0  0  0  0  0  0  0  0  0  0
  1  2  2  0
  2  3  1  0
  3  4  2  0
  4  5  1  0
  5  6  2  0
  4  7  1  0
  7  8  1  0
  8  9  2  0
  9 10  1  0
 10 11  2  0
 11 12  1  0
 11 13  1  0
  8 14  1  0
 14 15  2  0
 15 16  1  0
 16 17  2  0
 17 18  1  0
 18 19  2  0
 17 20  1  0
 16 21  1  0
  6  1  1  0
 12  7  2  0
 19 14  1  0
M  END
$$$$
