
     RDKit          3D

 21 23  0  0  0  0  0  0  0  0999 V2000
    2.5064    0.4252    6.7278 C   0  0  0  0  0  0  0  0  0  0  0  0
    2.1577    1.7178    6.4028 C   0  0  0  0  0  0  0  0  0  0  0  0
    2.1604    2.7256    7.3727 C   0  0  0  0  0  0  0  0  0  0  0  0
    2.5154    2.4290    8.6729 C   0  0  0  0  0  0  0  0  0  0  0  0
    2.8617    1.1319    8.9822 C   0  0  0  0  0  0  0  0  0  0  0  0
    2.8569    0.1515    8.0289 C   0  0  0  0  0  0  0  0  0  0  0  0
    2.5161    3.4924    9.6924 C   0  0  0  0  0  0  0  0  0  0  0  0
    1.5301    4.4574    9.6510 C   0  0  0  0  0  0  0  0  0  0  0  0
    1.5783    5.4047   10.6022 N   0  0  0  0  0  0  0  0  0  0  0  0
    2.4766    5.4639   11.5358 N   0  0  0  0  0  0  0  0  0  0  0  0
    3.4550    4.5186   11.5885 C   0  0  0  0  0  0  0  0  0  0  0  0
    3.4328    3.5609   10.6526 N   0  0  0  0  0  0  0  0  0  0  0  0
    4.4428    4.5738   12.6060 N   0  0  0  0  0  0  0  0  0  0  0  0
    0.5133    4.4165    8.6223 C   0  0  0  0  0  0  0  0  0  0  0  0
    0.2899    5.5363    7.8525 C   0  0  0  0  0  0  0  0  0  0  0  0
   -0.6748    5.5556    6.8518 C   0  0  0  0  0  0  0  0  0  0  0  0
   -1.4321    4.4290    6.6170 C   0  0  0  0  0  0  0  0  0  0  0  0
   -1.1968    3.3149    7.3962 C   0  0  0  0  0  0  0  0  0  0  0  0
   -0.2438    3.2978    8.3839 C   0  0  0  0  0  0  0  0  0  0  0  0
   -2.4119    4.3914    5.6285 O   0  0  0  0  0  0  0  0  0  0  0  0
   -0.9628    6.9708    5.8727 Cl  0  0  0  0  0  0  0  0  0  0  0  0
  1  2  2  0
  2  3  1  0
  3  4  2  0
  4  5  1  0
  5  6  2  0
  4  7  1  0
  7  8  1  0
  8  9  2  0
  9 10  1  0
 10 11  2  0
 11 12  1  0
 11 13  1  0
  8 14  1  0
 14 15  2  0
 15 16  1  0
 16 17  2  0
 17 18  1  0
 18 19  2  0
 17 20  1  0
 16 21  1  0
  6  1  1  0
 12  7  2  0
 19 14  1  0
M  END
$$$$
