
     RDKit          3D

 21 23  0  0  0  0  0  0  0  0999 V2000
    2.6732    0.3359    6.4230 C   0  0  0  0  0  0  0  0  0  0  0  0
    1.5318    1.0443    6.7287 C   0  0  0  0  0  0  0  0  0  0  0  0
    1.5301    1.9894    7.7598 C   0  0  0  0  0  0  0  0  0  0  0  0
    2.6819    2.2203    8.4839 C   0  0  0  0  0  0  0  0  0  0  0  0
    3.8151    1.5042    8.1662 C   0  0  0  0  0  0  0  0  0  0  0  0
    3.8097    0.5816    7.1568 C   0  0  0  0  0  0  0  0  0  0  0  0
    2.6766    3.2155    9.5701 C   0  0  0  0  0  0  0  0  0  0  0  0
    1.9730    4.3901    9.3959 C   0  0  0  0  0  0  0  0  0  0  0  0
    2.0028    5.2636   10.4159 N   0  0  0  0  0  0  0  0  0  0  0  0
    2.6395    5.0719   11.5294 N   0  0  0  0  0  0  0  0  0  0  0  0
    3.3376    3.9179   11.7148 C   0  0  0  0  0  0  0  0  0  0  0  0
    3.3263    3.0274   10.7145 N   0  0  0  0  0  0  0  0  0  0  0  0
    4.0377    3.6978   12.9295 N   0  0  0  0  0  0  0  0  0  0  0  0
    1.2514    4.6313    8.1650 C   0  0  0  0  0  0  0  0  0  0  0  0
   -0.0715    5.0096    8.2241 C   0  0  0  0  0  0  0  0  0  0  0  0
   -0.8149    5.2526    7.0748 C   0  0  0  0  0  0  0  0  0  0  0  0
   -0.2204    5.1138    5.8397 C   0  0  0  0  0  0  0  0  0  0  0  0
    1.1053    4.7343    5.7966 C   0  0  0  0  0  0  0  0  0  0  0  0
    1.8378    4.4947    6.9326 C   0  0  0  0  0  0  0  0  0  0  0  0
   -0.9163    5.3439    4.6560 O   0  0  0  0  0  0  0  0  0  0  0  0
   -2.4911    5.7324    7.1424 Cl  0  0  0  0  0  0  0  0  0  0  0  0
  1  2  2  0
  2  3  1  0
  3  4  2  0
  4  5  1  0
  5  6  2  0
  4  7  1  0
  7  8  1  0
  8  9  2  0
  9 10  1  0
 10 11  2  0
 11 12  1  0
 11 13  1  0
  8 14  1  0
 14 15  2  0
 15 16  1  0
 16 17  2  0
 17 18  1  0
 18 19  2  0
 17 20  1  0
 16 21  1  0
  6  1  1  0
 12  7  2  0
 19 14  1  0
M  END
$$$$
