
     RDKit          3D

 21 23  0  0  0  0  0  0  0  0999 V2000
    2.3178    0.3354    6.5273 C   0  0  0  0  0  0  0  0  0  0  0  0
    1.1482    0.9367    6.9378 C   0  0  0  0  0  0  0  0  0  0  0  0
    1.1530    1.8847    7.9662 C   0  0  0  0  0  0  0  0  0  0  0  0
    2.3398    2.2268    8.5817 C   0  0  0  0  0  0  0  0  0  0  0  0
    3.5009    1.6170    8.1600 C   0  0  0  0  0  0  0  0  0  0  0  0
    3.4890    0.6909    7.1539 C   0  0  0  0  0  0  0  0  0  0  0  0
    2.3413    3.2247    9.6654 C   0  0  0  0  0  0  0  0  0  0  0  0
    1.5645    4.3576    9.5307 C   0  0  0  0  0  0  0  0  0  0  0  0
    1.6041    5.2358   10.5465 N   0  0  0  0  0  0  0  0  0  0  0  0
    2.3132    5.0844   11.6218 N   0  0  0  0  0  0  0  0  0  0  0  0
    3.0840    3.9717   11.7679 C   0  0  0  0  0  0  0  0  0  0  0  0
    3.0650    3.0778   10.7708 N   0  0  0  0  0  0  0  0  0  0  0  0
    3.8638    3.7959   12.9406 N   0  0  0  0  0  0  0  0  0  0  0  0
    0.7613    4.5533    8.3431 C   0  0  0  0  0  0  0  0  0  0  0  0
    1.2650    4.1702    7.1199 C   0  0  0  0  0  0  0  0  0  0  0  0
    0.5395    4.3358    5.9457 C   0  0  0  0  0  0  0  0  0  0  0  0
   -0.7176    4.8973    5.9978 C   0  0  0  0  0  0  0  0  0  0  0  0
   -1.2086    5.2760    7.2303 C   0  0  0  0  0  0  0  0  0  0  0  0
   -0.4907    5.1117    8.3886 C   0  0  0  0  0  0  0  0  0  0  0  0
   -1.4886    5.0873    4.8542 O   0  0  0  0  0  0  0  0  0  0  0  0
    1.1713    3.8525    4.3928 Cl  0  0  0  0  0  0  0  0  0  0  0  0
  1  2  2  0
  2  3  1  0
  3  4  2  0
  4  5  1  0
  5  6  2  0
  4  7  1  0
  7  8  1  0
  8  9  2  0
  9 10  1  0
 10 11  2  0
 11 12  1  0
 11 13  1  0
  8 14  1  0
 14 15  2  0
 15 16  1  0
 16 17  2  0
 17 18  1  0
 18 19  2  0
 17 20  1  0
 16 21  1  0
  6  1  1  0
 12  7  2  0
 19 14  1  0
M  END
$$$$
