
     RDKit          3D

 21 23  0  0  0  0  0  0  0  0999 V2000
    3.6189    0.2249    7.0826 C   0  0  0  0  0  0  0  0  0  0  0  0
    3.5438    0.0325    8.4448 C   0  0  0  0  0  0  0  0  0  0  0  0
    3.1990    1.0853    9.2988 C   0  0  0  0  0  0  0  0  0  0  0  0
    2.9296    2.3344    8.7778 C   0  0  0  0  0  0  0  0  0  0  0  0
    3.0088    2.5110    7.4138 C   0  0  0  0  0  0  0  0  0  0  0  0
    3.3465    1.4773    6.5846 C   0  0  0  0  0  0  0  0  0  0  0  0
    2.5680    3.4414    9.6800 C   0  0  0  0  0  0  0  0  0  0  0  0
    1.6297    4.3636    9.2624 C   0  0  0  0  0  0  0  0  0  0  0  0
    1.3382    5.3535   10.1224 N   0  0  0  0  0  0  0  0  0  0  0  0
    1.8746    5.4900   11.2952 N   0  0  0  0  0  0  0  0  0  0  0  0
    2.8015    4.5877   11.7200 C   0  0  0  0  0  0  0  0  0  0  0  0
    3.1127    3.5891   10.8835 N   0  0  0  0  0  0  0  0  0  0  0  0
    3.3946    4.7276   13.0016 N   0  0  0  0  0  0  0  0  0  0  0  0
    1.0126    4.2363    7.9597 C   0  0  0  0  0  0  0  0  0  0  0  0
    0.5052    3.0160    7.5723 C   0  0  0  0  0  0  0  0  0  0  0  0
   -0.0964    2.8343    6.3323 C   0  0  0  0  0  0  0  0  0  0  0  0
   -0.1918    3.8977    5.4616 C   0  0  0  0  0  0  0  0  0  0  0  0
    0.3210    5.1138    5.8639 C   0  0  0  0  0  0  0  0  0  0  0  0
    0.9147    5.2913    7.0887 C   0  0  0  0  0  0  0  0  0  0  0  0
   -0.7837    3.7736    4.2075 O   0  0  0  0  0  0  0  0  0  0  0  0
   -0.7415    1.2913    5.8352 Cl  0  0  0  0  0  0  0  0  0  0  0  0
  1  2  2  0
  2  3  1  0
  3  4  2  0
  4  5  1  0
  5  6  2  0
  4  7  1  0
  7  8  1  0
  8  9  2  0
  9 10  1  0
 10 11  2  0
 11 12  1  0
 11 13  1  0
  8 14  1  0
 14 15  2  0
 15 16  1  0
 16 17  2  0
 17 18  1  0
 18 19  2  0
 17 20  1  0
 16 21  1  0
  6  1  1  0
 12  7  2  0
 19 14  1  0
M  END
$$$$
