
     RDKit          3D

 21 23  0  0  0  0  0  0  0  0999 V2000
    2.5256    0.2818    6.5476 C   0  0  0  0  0  0  0  0  0  0  0  0
    2.9294    1.5665    6.2566 C   0  0  0  0  0  0  0  0  0  0  0  0
    2.9540    2.5516    7.2493 C   0  0  0  0  0  0  0  0  0  0  0  0
    2.5704    2.2402    8.5379 C   0  0  0  0  0  0  0  0  0  0  0  0
    2.1692    0.9513    8.8131 C   0  0  0  0  0  0  0  0  0  0  0  0
    2.1476   -0.0069    7.8377 C   0  0  0  0  0  0  0  0  0  0  0  0
    2.5962    3.2803    9.5809 C   0  0  0  0  0  0  0  0  0  0  0  0
    1.8905    4.4486    9.3761 C   0  0  0  0  0  0  0  0  0  0  0  0
    1.9494    5.3643   10.3573 N   0  0  0  0  0  0  0  0  0  0  0  0
    2.6154    5.2176   11.4604 N   0  0  0  0  0  0  0  0  0  0  0  0
    3.3159    4.0702   11.6756 C   0  0  0  0  0  0  0  0  0  0  0  0
    3.2760    3.1385   10.7144 N   0  0  0  0  0  0  0  0  0  0  0  0
    4.0480    3.8993   12.8793 N   0  0  0  0  0  0  0  0  0  0  0  0
    1.1366    4.6401    8.1559 C   0  0  0  0  0  0  0  0  0  0  0  0
   -0.1976    4.9723    8.2348 C   0  0  0  0  0  0  0  0  0  0  0  0
   -0.9717    5.1664    7.0966 C   0  0  0  0  0  0  0  0  0  0  0  0
   -0.3971    5.0246    5.8524 C   0  0  0  0  0  0  0  0  0  0  0  0
    0.9403    4.6916    5.7895 C   0  0  0  0  0  0  0  0  0  0  0  0
    1.7031    4.5004    6.9145 C   0  0  0  0  0  0  0  0  0  0  0  0
   -1.1240    5.2068    4.6790 O   0  0  0  0  0  0  0  0  0  0  0  0
   -2.6623    5.5876    7.1893 Cl  0  0  0  0  0  0  0  0  0  0  0  0
  1  2  2  0
  2  3  1  0
  3  4  2  0
  4  5  1  0
  5  6  2  0
  4  7  1  0
  7  8  1  0
  8  9  2  0
  9 10  1  0
 10 11  2  0
 11 12  1  0
 11 13  1  0
  8 14  1  0
 14 15  2  0
 15 16  1  0
 16 17  2  0
 17 18  1  0
 18 19  2  0
 17 20  1  0
 16 21  1  0
  6  1  1  0
 12  7  2  0
 19 14  1  0
M  END
$$$$
