
     RDKit          3D

 21 23  0  0  0  0  0  0  0  0999 V2000
    2.5562    0.0158    6.3582 C   0  0  0  0  0  0  0  0  0  0  0  0
    1.4274    0.7186    6.7189 C   0  0  0  0  0  0  0  0  0  0  0  0
    1.4702    1.6610    7.7516 C   0  0  0  0  0  0  0  0  0  0  0  0
    2.6537    1.8949    8.4217 C   0  0  0  0  0  0  0  0  0  0  0  0
    3.7737    1.1844    8.0493 C   0  0  0  0  0  0  0  0  0  0  0  0
    3.7248    0.2644    7.0387 C   0  0  0  0  0  0  0  0  0  0  0  0
    2.6952    2.8873    9.5097 C   0  0  0  0  0  0  0  0  0  0  0  0
    1.9932    4.0667    9.3645 C   0  0  0  0  0  0  0  0  0  0  0  0
    2.0666    4.9374   10.3849 N   0  0  0  0  0  0  0  0  0  0  0  0
    2.7429    4.7387   11.4734 N   0  0  0  0  0  0  0  0  0  0  0  0
    3.4400    3.5797   11.6300 C   0  0  0  0  0  0  0  0  0  0  0  0
    3.3857    2.6920   10.6287 N   0  0  0  0  0  0  0  0  0  0  0  0
    4.1833    3.3520   12.8173 N   0  0  0  0  0  0  0  0  0  0  0  0
    1.2280    4.3159    8.1619 C   0  0  0  0  0  0  0  0  0  0  0  0
   -0.0919    4.6937    8.2708 C   0  0  0  0  0  0  0  0  0  0  0  0
   -0.8759    4.9440    7.1505 C   0  0  0  0  0  0  0  0  0  0  0  0
   -0.3262    4.8131    5.8940 C   0  0  0  0  0  0  0  0  0  0  0  0
    0.9971    4.4339    5.8010 C   0  0  0  0  0  0  0  0  0  0  0  0
    1.7698    4.1872    6.9084 C   0  0  0  0  0  0  0  0  0  0  0  0
   -1.0641    5.0508    4.7375 O   0  0  0  0  0  0  0  0  0  0  0  0
   -2.5485    5.4233    7.2813 Cl  0  0  0  0  0  0  0  0  0  0  0  0
  1  2  2  0
  2  3  1  0
  3  4  2  0
  4  5  1  0
  5  6  2  0
  4  7  1  0
  7  8  1  0
  8  9  2  0
  9 10  1  0
 10 11  2  0
 11 12  1  0
 11 13  1  0
  8 14  1  0
 14 15  2  0
 15 16  1  0
 16 17  2  0
 17 18  1  0
 18 19  2  0
 17 20  1  0
 16 21  1  0
  6  1  1  0
 12  7  2  0
 19 14  1  0
M  END
$$$$
