
     RDKit          3D

 21 23  0  0  0  0  0  0  0  0999 V2000
    2.1908    0.2392    6.3672 C   0  0  0  0  0  0  0  0  0  0  0  0
    1.0663    0.9054    6.8027 C   0  0  0  0  0  0  0  0  0  0  0  0
    1.1536    1.8811    7.8011 C   0  0  0  0  0  0  0  0  0  0  0  0
    2.3776    2.1853    8.3613 C   0  0  0  0  0  0  0  0  0  0  0  0
    3.4928    1.5107    7.9151 C   0  0  0  0  0  0  0  0  0  0  0  0
    3.4002    0.5579    6.9386 C   0  0  0  0  0  0  0  0  0  0  0  0
    2.4660    3.2126    9.4135 C   0  0  0  0  0  0  0  0  0  0  0  0
    1.6440    4.3187    9.3373 C   0  0  0  0  0  0  0  0  0  0  0  0
    1.7666    5.2255   10.3208 N   0  0  0  0  0  0  0  0  0  0  0  0
    2.5933    5.1243   11.3149 N   0  0  0  0  0  0  0  0  0  0  0  0
    3.4101    4.0386   11.4026 C   0  0  0  0  0  0  0  0  0  0  0  0
    3.3104    3.1172   10.4358 N   0  0  0  0  0  0  0  0  0  0  0  0
    4.3184    3.9178   12.4863 N   0  0  0  0  0  0  0  0  0  0  0  0
    0.7100    4.4582    8.2409 C   0  0  0  0  0  0  0  0  0  0  0  0
    1.1860    4.4625    6.9486 C   0  0  0  0  0  0  0  0  0  0  0  0
    0.3361    4.5955    5.8565 C   0  0  0  0  0  0  0  0  0  0  0  0
   -1.0196    4.7271    6.0633 C   0  0  0  0  0  0  0  0  0  0  0  0
   -1.4813    4.7210    7.3634 C   0  0  0  0  0  0  0  0  0  0  0  0
   -0.6406    4.5895    8.4405 C   0  0  0  0  0  0  0  0  0  0  0  0
   -1.9171    4.8636    5.0077 O   0  0  0  0  0  0  0  0  0  0  0  0
    0.9322    4.6015    4.2167 Cl  0  0  0  0  0  0  0  0  0  0  0  0
  1  2  2  0
  2  3  1  0
  3  4  2  0
  4  5  1  0
  5  6  2  0
  4  7  1  0
  7  8  1  0
  8  9  2  0
  9 10  1  0
 10 11  2  0
 11 12  1  0
 11 13  1  0
  8 14  1  0
 14 15  2  0
 15 16  1  0
 16 17  2  0
 17 18  1  0
 18 19  2  0
 17 20  1  0
 16 21  1  0
  6  1  1  0
 12  7  2  0
 19 14  1  0
M  END
$$$$
