
     RDKit          3D

 21 23  0  0  0  0  0  0  0  0999 V2000
    2.9445    0.0772    6.8039 C   0  0  0  0  0  0  0  0  0  0  0  0
    3.9946    0.3356    7.6574 C   0  0  0  0  0  0  0  0  0  0  0  0
    3.9086    1.3559    8.6103 C   0  0  0  0  0  0  0  0  0  0  0  0
    2.7612    2.1171    8.7023 C   0  0  0  0  0  0  0  0  0  0  0  0
    1.7198    1.8465    7.8420 C   0  0  0  0  0  0  0  0  0  0  0  0
    1.8106    0.8474    6.9127 C   0  0  0  0  0  0  0  0  0  0  0  0
    2.6742    3.1918    9.7062 C   0  0  0  0  0  0  0  0  0  0  0  0
    1.8670    4.2815    9.4492 C   0  0  0  0  0  0  0  0  0  0  0  0
    1.8254    5.2332   10.3963 N   0  0  0  0  0  0  0  0  0  0  0  0
    2.4844    5.1888   11.5124 N   0  0  0  0  0  0  0  0  0  0  0  0
    3.2844    4.1199   11.7789 C   0  0  0  0  0  0  0  0  0  0  0  0
    3.3460    3.1546   10.8526 N   0  0  0  0  0  0  0  0  0  0  0  0
    4.0097    4.0610   12.9973 N   0  0  0  0  0  0  0  0  0  0  0  0
    1.1182    4.3582    8.2133 C   0  0  0  0  0  0  0  0  0  0  0  0
    0.2273    3.3548    7.9034 C   0  0  0  0  0  0  0  0  0  0  0  0
   -0.5174    3.3745    6.7297 C   0  0  0  0  0  0  0  0  0  0  0  0
   -0.3665    4.4218    5.8474 C   0  0  0  0  0  0  0  0  0  0  0  0
    0.5297    5.4195    6.1716 C   0  0  0  0  0  0  0  0  0  0  0  0
    1.2641    5.3983    7.3311 C   0  0  0  0  0  0  0  0  0  0  0  0
   -1.0857    4.4935    4.6574 O   0  0  0  0  0  0  0  0  0  0  0  0
   -1.6480    2.1068    6.3310 Cl  0  0  0  0  0  0  0  0  0  0  0  0
  1  2  2  0
  2  3  1  0
  3  4  2  0
  4  5  1  0
  5  6  2  0
  4  7  1  0
  7  8  1  0
  8  9  2  0
  9 10  1  0
 10 11  2  0
 11 12  1  0
 11 13  1  0
  8 14  1  0
 14 15  2  0
 15 16  1  0
 16 17  2  0
 17 18  1  0
 18 19  2  0
 17 20  1  0
 16 21  1  0
  6  1  1  0
 12  7  2  0
 19 14  1  0
M  END
$$$$
