
     RDKit          3D

 21 23  0  0  0  0  0  0  0  0999 V2000
    2.4362    0.1816    6.4882 C   0  0  0  0  0  0  0  0  0  0  0  0
    1.2953    0.8735    6.8312 C   0  0  0  0  0  0  0  0  0  0  0  0
    1.3088    1.8039    7.8755 C   0  0  0  0  0  0  0  0  0  0  0  0
    2.4752    2.0366    8.5753 C   0  0  0  0  0  0  0  0  0  0  0  0
    3.6077    1.3370    8.2204 C   0  0  0  0  0  0  0  0  0  0  0  0
    3.5874    0.4288    7.1983 C   0  0  0  0  0  0  0  0  0  0  0  0
    2.4858    3.0162    9.6755 C   0  0  0  0  0  0  0  0  0  0  0  0
    1.7708    4.1882    9.5327 C   0  0  0  0  0  0  0  0  0  0  0  0
    1.8160    5.0474   10.5644 N   0  0  0  0  0  0  0  0  0  0  0  0
    2.4770    4.8443   11.6616 N   0  0  0  0  0  0  0  0  0  0  0  0
    3.1866    3.6927   11.8159 C   0  0  0  0  0  0  0  0  0  0  0  0
    3.1604    2.8165   10.8034 N   0  0  0  0  0  0  0  0  0  0  0  0
    3.9133    3.4603   13.0126 N   0  0  0  0  0  0  0  0  0  0  0  0
    1.0222    4.4418    8.3206 C   0  0  0  0  0  0  0  0  0  0  0  0
   -0.2999    4.8164    8.4128 C   0  0  0  0  0  0  0  0  0  0  0  0
   -1.0685    5.0708    7.2827 C   0  0  0  0  0  0  0  0  0  0  0  0
   -0.5008    4.9474    6.0335 C   0  0  0  0  0  0  0  0  0  0  0  0
    0.8245    4.5715    5.9574 C   0  0  0  0  0  0  0  0  0  0  0  0
    1.5820    4.3206    7.0743 C   0  0  0  0  0  0  0  0  0  0  0  0
   -1.2226    5.1894    4.8679 O   0  0  0  0  0  0  0  0  0  0  0  0
   -2.7438    5.5459    7.3922 Cl  0  0  0  0  0  0  0  0  0  0  0  0
  1  2  2  0
  2  3  1  0
  3  4  2  0
  4  5  1  0
  5  6  2  0
  4  7  1  0
  7  8  1  0
  8  9  2  0
  9 10  1  0
 10 11  2  0
 11 12  1  0
 11 13  1  0
  8 14  1  0
 14 15  2  0
 15 16  1  0
 16 17  2  0
 17 18  1  0
 18 19  2  0
 17 20  1  0
 16 21  1  0
  6  1  1  0
 12  7  2  0
 19 14  1  0
M  END
$$$$
