
     RDKit          3D

 21 23  0  0  0  0  0  0  0  0999 V2000
    3.5125    0.0259    7.2003 C   0  0  0  0  0  0  0  0  0  0  0  0
    3.5213   -0.1150    8.5707 C   0  0  0  0  0  0  0  0  0  0  0  0
    3.1670    0.9521    9.4026 C   0  0  0  0  0  0  0  0  0  0  0  0
    2.8033    2.1637    8.8511 C   0  0  0  0  0  0  0  0  0  0  0  0
    2.7994    2.2890    7.4792 C   0  0  0  0  0  0  0  0  0  0  0  0
    3.1469    1.2415    6.6718 C   0  0  0  0  0  0  0  0  0  0  0  0
    2.4319    3.2861    9.7301 C   0  0  0  0  0  0  0  0  0  0  0  0
    1.4619    4.1723    9.3073 C   0  0  0  0  0  0  0  0  0  0  0  0
    1.1628    5.1784   10.1458 N   0  0  0  0  0  0  0  0  0  0  0  0
    1.7194    5.3610   11.3028 N   0  0  0  0  0  0  0  0  0  0  0  0
    2.6776    4.4945   11.7325 C   0  0  0  0  0  0  0  0  0  0  0  0
    2.9972    3.4810   10.9173 N   0  0  0  0  0  0  0  0  0  0  0  0
    3.2931    4.6850   12.9969 N   0  0  0  0  0  0  0  0  0  0  0  0
    0.8218    3.9932    8.0220 C   0  0  0  0  0  0  0  0  0  0  0  0
    0.3429    2.7490    7.6768 C   0  0  0  0  0  0  0  0  0  0  0  0
   -0.2788    2.5176    6.4552 C   0  0  0  0  0  0  0  0  0  0  0  0
   -0.4240    3.5547    5.5600 C   0  0  0  0  0  0  0  0  0  0  0  0
    0.0607    4.7953    5.9200 C   0  0  0  0  0  0  0  0  0  0  0  0
    0.6743    5.0219    7.1268 C   0  0  0  0  0  0  0  0  0  0  0  0
   -1.0380    3.3807    4.3226 O   0  0  0  0  0  0  0  0  0  0  0  0
   -0.8880    0.9439    6.0115 Cl  0  0  0  0  0  0  0  0  0  0  0  0
  1  2  2  0
  2  3  1  0
  3  4  2  0
  4  5  1  0
  5  6  2  0
  4  7  1  0
  7  8  1  0
  8  9  2  0
  9 10  1  0
 10 11  2  0
 11 12  1  0
 11 13  1  0
  8 14  1  0
 14 15  2  0
 15 16  1  0
 16 17  2  0
 17 18  1  0
 18 19  2  0
 17 20  1  0
 16 21  1  0
  6  1  1  0
 12  7  2  0
 19 14  1  0
M  END
$$$$
