
     RDKit          3D

 21 23  0  0  0  0  0  0  0  0999 V2000
    2.3418    0.3182    6.3871 C   0  0  0  0  0  0  0  0  0  0  0  0
    1.2262    1.0429    6.7452 C   0  0  0  0  0  0  0  0  0  0  0  0
    1.2919    2.0048    7.7586 C   0  0  0  0  0  0  0  0  0  0  0  0
    2.4852    2.2361    8.4119 C   0  0  0  0  0  0  0  0  0  0  0  0
    3.5919    1.5035    8.0425 C   0  0  0  0  0  0  0  0  0  0  0  0
    3.5205    0.5646    7.0508 C   0  0  0  0  0  0  0  0  0  0  0  0
    2.5509    3.2490    9.4796 C   0  0  0  0  0  0  0  0  0  0  0  0
    1.7209    4.3494    9.4077 C   0  0  0  0  0  0  0  0  0  0  0  0
    1.8227    5.2432   10.4054 N   0  0  0  0  0  0  0  0  0  0  0  0
    2.6366    5.1346   11.4093 N   0  0  0  0  0  0  0  0  0  0  0  0
    3.4609    4.0543   11.4930 C   0  0  0  0  0  0  0  0  0  0  0  0
    3.3820    3.1459   10.5120 N   0  0  0  0  0  0  0  0  0  0  0  0
    4.3553    3.9254   12.5873 N   0  0  0  0  0  0  0  0  0  0  0  0
    0.8010    4.4971    8.3005 C   0  0  0  0  0  0  0  0  0  0  0  0
    1.2907    4.4875    7.0134 C   0  0  0  0  0  0  0  0  0  0  0  0
    0.4546    4.6273    5.9116 C   0  0  0  0  0  0  0  0  0  0  0  0
   -0.9012    4.7800    6.1031 C   0  0  0  0  0  0  0  0  0  0  0  0
   -1.3768    4.7876    7.3982 C   0  0  0  0  0  0  0  0  0  0  0  0
   -0.5497    4.6494    8.4850 C   0  0  0  0  0  0  0  0  0  0  0  0
   -1.7852    4.9244    5.0372 O   0  0  0  0  0  0  0  0  0  0  0  0
    1.0683    4.6159    4.2783 Cl  0  0  0  0  0  0  0  0  0  0  0  0
  1  2  2  0
  2  3  1  0
  3  4  2  0
  4  5  1  0
  5  6  2  0
  4  7  1  0
  7  8  1  0
  8  9  2  0
  9 10  1  0
 10 11  2  0
 11 12  1  0
 11 13  1  0
  8 14  1  0
 14 15  2  0
 15 16  1  0
 16 17  2  0
 17 18  1  0
 18 19  2  0
 17 20  1  0
 16 21  1  0
  6  1  1  0
 12  7  2  0
 19 14  1  0
M  END
$$$$
