
     RDKit          3D

 21 23  0  0  0  0  0  0  0  0999 V2000
    1.9145    0.6708    6.1278 C   0  0  0  0  0  0  0  0  0  0  0  0
    2.1272    0.1878    7.4004 C   0  0  0  0  0  0  0  0  0  0  0  0
    2.2647    1.0613    8.4841 C   0  0  0  0  0  0  0  0  0  0  0  0
    2.1876    2.4245    8.2838 C   0  0  0  0  0  0  0  0  0  0  0  0
    1.9744    2.8920    7.0055 C   0  0  0  0  0  0  0  0  0  0  0  0
    1.8409    2.0323    5.9505 C   0  0  0  0  0  0  0  0  0  0  0  0
    2.3340    3.3419    9.4271 C   0  0  0  0  0  0  0  0  0  0  0  0
    1.4984    4.4368    9.5156 C   0  0  0  0  0  0  0  0  0  0  0  0
    1.6756    5.2419   10.5763 N   0  0  0  0  0  0  0  0  0  0  0  0
    2.5656    5.0543   11.5008 N   0  0  0  0  0  0  0  0  0  0  0  0
    3.3965    3.9784   11.4261 C   0  0  0  0  0  0  0  0  0  0  0  0
    3.2434    3.1575   10.3790 N   0  0  0  0  0  0  0  0  0  0  0  0
    4.3739    3.7636   12.4324 N   0  0  0  0  0  0  0  0  0  0  0  0
    0.4945    4.6712    8.5002 C   0  0  0  0  0  0  0  0  0  0  0  0
    0.3227    5.9450    8.0056 C   0  0  0  0  0  0  0  0  0  0  0  0
   -0.6273    6.2295    7.0315 C   0  0  0  0  0  0  0  0  0  0  0  0
   -1.4224    5.2164    6.5420 C   0  0  0  0  0  0  0  0  0  0  0  0
   -1.2386    3.9457    7.0472 C   0  0  0  0  0  0  0  0  0  0  0  0
   -0.3000    3.6667    8.0091 C   0  0  0  0  0  0  0  0  0  0  0  0
   -2.3897    5.4434    5.5667 O   0  0  0  0  0  0  0  0  0  0  0  0
   -0.8500    7.8409    6.4003 Cl  0  0  0  0  0  0  0  0  0  0  0  0
  1  2  2  0
  2  3  1  0
  3  4  2  0
  4  5  1  0
  5  6  2  0
  4  7  1  0
  7  8  1  0
  8  9  2  0
  9 10  1  0
 10 11  2  0
 11 12  1  0
 11 13  1  0
  8 14  1  0
 14 15  2  0
 15 16  1  0
 16 17  2  0
 17 18  1  0
 18 19  2  0
 17 20  1  0
 16 21  1  0
  6  1  1  0
 12  7  2  0
 19 14  1  0
M  END
$$$$
