
     RDKit          3D

 21 23  0  0  0  0  0  0  0  0999 V2000
    2.5615    0.2406    6.2216 C   0  0  0  0  0  0  0  0  0  0  0  0
    1.4206    0.9030    6.6186 C   0  0  0  0  0  0  0  0  0  0  0  0
    1.4631    1.8481    7.6489 C   0  0  0  0  0  0  0  0  0  0  0  0
    2.6586    2.1255    8.2798 C   0  0  0  0  0  0  0  0  0  0  0  0
    3.7907    1.4550    7.8715 C   0  0  0  0  0  0  0  0  0  0  0  0
    3.7420    0.5321    6.8635 C   0  0  0  0  0  0  0  0  0  0  0  0
    2.6999    3.1205    9.3654 C   0  0  0  0  0  0  0  0  0  0  0  0
    2.0196    4.3108    9.2060 C   0  0  0  0  0  0  0  0  0  0  0  0
    2.0917    5.1835   10.2248 N   0  0  0  0  0  0  0  0  0  0  0  0
    2.7482    4.9773   11.3241 N   0  0  0  0  0  0  0  0  0  0  0  0
    3.4237    3.8076   11.4947 C   0  0  0  0  0  0  0  0  0  0  0  0
    3.3701    2.9177   10.4953 N   0  0  0  0  0  0  0  0  0  0  0  0
    4.1452    3.5716   12.6938 N   0  0  0  0  0  0  0  0  0  0  0  0
    1.2768    4.5685    7.9912 C   0  0  0  0  0  0  0  0  0  0  0  0
   -0.0274    5.0020    8.0795 C   0  0  0  0  0  0  0  0  0  0  0  0
   -0.7897    5.2632    6.9468 C   0  0  0  0  0  0  0  0  0  0  0  0
   -0.2338    5.0864    5.6986 C   0  0  0  0  0  0  0  0  0  0  0  0
    1.0736    4.6517    5.6263 C   0  0  0  0  0  0  0  0  0  0  0  0
    1.8248    4.3943    6.7459 C   0  0  0  0  0  0  0  0  0  0  0  0
   -0.9502    5.3324    4.5304 O   0  0  0  0  0  0  0  0  0  0  0  0
   -2.4424    5.8129    7.0514 Cl  0  0  0  0  0  0  0  0  0  0  0  0
  1  2  2  0
  2  3  1  0
  3  4  2  0
  4  5  1  0
  5  6  2  0
  4  7  1  0
  7  8  1  0
  8  9  2  0
  9 10  1  0
 10 11  2  0
 11 12  1  0
 11 13  1  0
  8 14  1  0
 14 15  2  0
 15 16  1  0
 16 17  2  0
 17 18  1  0
 18 19  2  0
 17 20  1  0
 16 21  1  0
  6  1  1  0
 12  7  2  0
 19 14  1  0
M  END
$$$$
