
     RDKit          3D

 21 23  0  0  0  0  0  0  0  0999 V2000
    2.8513    0.4978    6.6605 C   0  0  0  0  0  0  0  0  0  0  0  0
    2.6943    1.8343    6.3652 C   0  0  0  0  0  0  0  0  0  0  0  0
    2.6388    2.7911    7.3840 C   0  0  0  0  0  0  0  0  0  0  0  0
    2.7416    2.3989    8.7031 C   0  0  0  0  0  0  0  0  0  0  0  0
    2.8982    1.0590    8.9823 C   0  0  0  0  0  0  0  0  0  0  0  0
    2.9517    0.1289    7.9813 C   0  0  0  0  0  0  0  0  0  0  0  0
    2.6815    3.4089    9.7739 C   0  0  0  0  0  0  0  0  0  0  0  0
    1.7809    4.4488    9.6609 C   0  0  0  0  0  0  0  0  0  0  0  0
    1.7687    5.3427   10.6636 N   0  0  0  0  0  0  0  0  0  0  0  0
    2.5360    5.2868   11.7076 N   0  0  0  0  0  0  0  0  0  0  0  0
    3.4289    4.2666   11.8320 C   0  0  0  0  0  0  0  0  0  0  0  0
    3.4641    3.3595   10.8473 N   0  0  0  0  0  0  0  0  0  0  0  0
    4.2733    4.1956   12.9704 N   0  0  0  0  0  0  0  0  0  0  0  0
    0.9104    4.5367    8.5084 C   0  0  0  0  0  0  0  0  0  0  0  0
    0.2432    3.4099    8.0820 C   0  0  0  0  0  0  0  0  0  0  0  0
   -0.6040    3.4344    6.9802 C   0  0  0  0  0  0  0  0  0  0  0  0
   -0.7869    4.6129    6.2904 C   0  0  0  0  0  0  0  0  0  0  0  0
   -0.1118    5.7332    6.7295 C   0  0  0  0  0  0  0  0  0  0  0  0
    0.7243    5.7071    7.8178 C   0  0  0  0  0  0  0  0  0  0  0  0
   -1.6229    4.6958    5.1802 O   0  0  0  0  0  0  0  0  0  0  0  0
   -1.4525    2.0107    6.4347 Cl  0  0  0  0  0  0  0  0  0  0  0  0
  1  2  2  0
  2  3  1  0
  3  4  2  0
  4  5  1  0
  5  6  2  0
  4  7  1  0
  7  8  1  0
  8  9  2  0
  9 10  1  0
 10 11  2  0
 11 12  1  0
 11 13  1  0
  8 14  1  0
 14 15  2  0
 15 16  1  0
 16 17  2  0
 17 18  1  0
 18 19  2  0
 17 20  1  0
 16 21  1  0
  6  1  1  0
 12  7  2  0
 19 14  1  0
M  END
$$$$
