
     RDKit          3D

 21 23  0  0  0  0  0  0  0  0999 V2000
    2.0576    0.4308    6.5011 C   0  0  0  0  0  0  0  0  0  0  0  0
    0.9445    1.1462    6.8847 C   0  0  0  0  0  0  0  0  0  0  0  0
    1.0114    2.0649    7.9373 C   0  0  0  0  0  0  0  0  0  0  0  0
    2.2034    2.2622    8.6042 C   0  0  0  0  0  0  0  0  0  0  0  0
    3.3075    1.5394    8.2089 C   0  0  0  0  0  0  0  0  0  0  0  0
    3.2350    0.6428    7.1789 C   0  0  0  0  0  0  0  0  0  0  0  0
    2.2703    3.2296    9.7132 C   0  0  0  0  0  0  0  0  0  0  0  0
    1.5114    4.3802    9.6420 C   0  0  0  0  0  0  0  0  0  0  0  0
    1.6111    5.2291   10.6784 N   0  0  0  0  0  0  0  0  0  0  0  0
    2.3615    5.0348   11.7181 N   0  0  0  0  0  0  0  0  0  0  0  0
    3.1153    3.9041   11.8015 C   0  0  0  0  0  0  0  0  0  0  0  0
    3.0366    3.0387   10.7825 N   0  0  0  0  0  0  0  0  0  0  0  0
    3.9399    3.6814   12.9348 N   0  0  0  0  0  0  0  0  0  0  0  0
    0.6631    4.6237    8.4952 C   0  0  0  0  0  0  0  0  0  0  0  0
    1.2124    4.5886    7.2329 C   0  0  0  0  0  0  0  0  0  0  0  0
    0.4466    4.8169    6.0953 C   0  0  0  0  0  0  0  0  0  0  0  0
   -0.8983    5.0860    6.2249 C   0  0  0  0  0  0  0  0  0  0  0  0
   -1.4341    5.1178    7.4959 C   0  0  0  0  0  0  0  0  0  0  0  0
   -0.6764    4.8921    8.6180 C   0  0  0  0  0  0  0  0  0  0  0  0
   -1.7131    5.3224    5.1211 O   0  0  0  0  0  0  0  0  0  0  0  0
    1.1360    4.7737    4.4930 Cl  0  0  0  0  0  0  0  0  0  0  0  0
  1  2  2  0
  2  3  1  0
  3  4  2  0
  4  5  1  0
  5  6  2  0
  4  7  1  0
  7  8  1  0
  8  9  2  0
  9 10  1  0
 10 11  2  0
 11 12  1  0
 11 13  1  0
  8 14  1  0
 14 15  2  0
 15 16  1  0
 16 17  2  0
 17 18  1  0
 18 19  2  0
 17 20  1  0
 16 21  1  0
  6  1  1  0
 12  7  2  0
 19 14  1  0
M  END
$$$$
