
     RDKit          3D

 21 23  0  0  0  0  0  0  0  0999 V2000
    2.9701    0.5541    6.6867 C   0  0  0  0  0  0  0  0  0  0  0  0
    2.6569    1.8669    6.4101 C   0  0  0  0  0  0  0  0  0  0  0  0
    2.5783    2.8156    7.4349 C   0  0  0  0  0  0  0  0  0  0  0  0
    2.8160    2.4393    8.7412 C   0  0  0  0  0  0  0  0  0  0  0  0
    3.1281    1.1230    9.0017 C   0  0  0  0  0  0  0  0  0  0  0  0
    3.2032    0.2007    7.9949 C   0  0  0  0  0  0  0  0  0  0  0  0
    2.7312    3.4406    9.8185 C   0  0  0  0  0  0  0  0  0  0  0  0
    1.8270    4.4763    9.6974 C   0  0  0  0  0  0  0  0  0  0  0  0
    1.7919    5.3623   10.7065 N   0  0  0  0  0  0  0  0  0  0  0  0
    2.5408    5.3024   11.7636 N   0  0  0  0  0  0  0  0  0  0  0  0
    3.4371    4.2862   11.8961 C   0  0  0  0  0  0  0  0  0  0  0  0
    3.4948    3.3870   10.9052 N   0  0  0  0  0  0  0  0  0  0  0  0
    4.2614    4.2110   13.0488 N   0  0  0  0  0  0  0  0  0  0  0  0
    0.9766    4.5685    8.5302 C   0  0  0  0  0  0  0  0  0  0  0  0
    0.8736    3.4853    7.6861 C   0  0  0  0  0  0  0  0  0  0  0  0
    0.0739    3.5172    6.5494 C   0  0  0  0  0  0  0  0  0  0  0  0
   -0.6378    4.6587    6.2517 C   0  0  0  0  0  0  0  0  0  0  0  0
   -0.5244    5.7355    7.1068 C   0  0  0  0  0  0  0  0  0  0  0  0
    0.2657    5.7021    8.2288 C   0  0  0  0  0  0  0  0  0  0  0  0
   -1.4538    4.7471    5.1272 O   0  0  0  0  0  0  0  0  0  0  0  0
   -0.0614    2.1485    5.4757 Cl  0  0  0  0  0  0  0  0  0  0  0  0
  1  2  2  0
  2  3  1  0
  3  4  2  0
  4  5  1  0
  5  6  2  0
  4  7  1  0
  7  8  1  0
  8  9  2  0
  9 10  1  0
 10 11  2  0
 11 12  1  0
 11 13  1  0
  8 14  1  0
 14 15  2  0
 15 16  1  0
 16 17  2  0
 17 18  1  0
 18 19  2  0
 17 20  1  0
 16 21  1  0
  6  1  1  0
 12  7  2  0
 19 14  1  0
M  END
$$$$
