
     RDKit          3D

 21 23  0  0  0  0  0  0  0  0999 V2000
    2.7573    0.0629    6.7207 C   0  0  0  0  0  0  0  0  0  0  0  0
    2.0940    1.2456    6.4770 C   0  0  0  0  0  0  0  0  0  0  0  0
    2.0428    2.2511    7.4480 C   0  0  0  0  0  0  0  0  0  0  0  0
    2.6617    2.0631    8.6671 C   0  0  0  0  0  0  0  0  0  0  0  0
    3.3209    0.8752    8.8956 C   0  0  0  0  0  0  0  0  0  0  0  0
    3.3670   -0.1036    7.9418 C   0  0  0  0  0  0  0  0  0  0  0  0
    2.6049    3.1236    9.6881 C   0  0  0  0  0  0  0  0  0  0  0  0
    1.6619    4.1233    9.5605 C   0  0  0  0  0  0  0  0  0  0  0  0
    1.6546    5.0661   10.5174 N   0  0  0  0  0  0  0  0  0  0  0  0
    2.4635    5.0910   11.5308 N   0  0  0  0  0  0  0  0  0  0  0  0
    3.3986    4.1112   11.6692 C   0  0  0  0  0  0  0  0  0  0  0  0
    3.4299    3.1571   10.7299 N   0  0  0  0  0  0  0  0  0  0  0  0
    4.2886    4.1288   12.7745 N   0  0  0  0  0  0  0  0  0  0  0  0
    0.7446    4.1210    8.4413 C   0  0  0  0  0  0  0  0  0  0  0  0
    0.4875    5.3014    7.7802 C   0  0  0  0  0  0  0  0  0  0  0  0
   -0.3859    5.3597    6.7003 C   0  0  0  0  0  0  0  0  0  0  0  0
   -1.0154    4.2110    6.2733 C   0  0  0  0  0  0  0  0  0  0  0  0
   -0.7477    3.0363    6.9456 C   0  0  0  0  0  0  0  0  0  0  0  0
    0.1150    2.9806    8.0117 C   0  0  0  0  0  0  0  0  0  0  0  0
   -1.8996    4.2104    5.1979 O   0  0  0  0  0  0  0  0  0  0  0  0
   -0.7160    6.8517    5.8580 Cl  0  0  0  0  0  0  0  0  0  0  0  0
  1  2  2  0
  2  3  1  0
  3  4  2  0
  4  5  1  0
  5  6  2  0
  4  7  1  0
  7  8  1  0
  8  9  2  0
  9 10  1  0
 10 11  2  0
 11 12  1  0
 11 13  1  0
  8 14  1  0
 14 15  2  0
 15 16  1  0
 16 17  2  0
 17 18  1  0
 18 19  2  0
 17 20  1  0
 16 21  1  0
  6  1  1  0
 12  7  2  0
 19 14  1  0
M  END
$$$$
