
     RDKit          3D

 21 23  0  0  0  0  0  0  0  0999 V2000
    3.4835    0.0377    7.0663 C   0  0  0  0  0  0  0  0  0  0  0  0
    3.3922   -0.1445    8.4288 C   0  0  0  0  0  0  0  0  0  0  0  0
    3.1029    0.9293    9.2771 C   0  0  0  0  0  0  0  0  0  0  0  0
    2.9054    2.1893    8.7500 C   0  0  0  0  0  0  0  0  0  0  0  0
    2.9999    2.3555    7.3857 C   0  0  0  0  0  0  0  0  0  0  0  0
    3.2832    1.3012    6.5621 C   0  0  0  0  0  0  0  0  0  0  0  0
    2.6020    3.3185    9.6462 C   0  0  0  0  0  0  0  0  0  0  0  0
    1.6621    4.2494    9.2524 C   0  0  0  0  0  0  0  0  0  0  0  0
    1.4249    5.2595   10.1056 N   0  0  0  0  0  0  0  0  0  0  0  0
    2.0141    5.4075   11.2514 N   0  0  0  0  0  0  0  0  0  0  0  0
    2.9433    4.4968   11.6525 C   0  0  0  0  0  0  0  0  0  0  0  0
    3.2010    3.4781   10.8221 N   0  0  0  0  0  0  0  0  0  0  0  0
    3.5939    4.6491   12.9044 N   0  0  0  0  0  0  0  0  0  0  0  0
    0.9868    4.1097    7.9803 C   0  0  0  0  0  0  0  0  0  0  0  0
    0.4720    2.8832    7.6232 C   0  0  0  0  0  0  0  0  0  0  0  0
   -0.1844    2.6896    6.4132 C   0  0  0  0  0  0  0  0  0  0  0  0
   -0.3284    3.7472    5.5420 C   0  0  0  0  0  0  0  0  0  0  0  0
    0.1925    4.9695    5.9137 C   0  0  0  0  0  0  0  0  0  0  0  0
    0.8404    5.1588    7.1089 C   0  0  0  0  0  0  0  0  0  0  0  0
   -0.9762    3.6111    4.3172 O   0  0  0  0  0  0  0  0  0  0  0  0
   -0.8392    1.1387    5.9547 Cl  0  0  0  0  0  0  0  0  0  0  0  0
  1  2  2  0
  2  3  1  0
  3  4  2  0
  4  5  1  0
  5  6  2  0
  4  7  1  0
  7  8  1  0
  8  9  2  0
  9 10  1  0
 10 11  2  0
 11 12  1  0
 11 13  1  0
  8 14  1  0
 14 15  2  0
 15 16  1  0
 16 17  2  0
 17 18  1  0
 18 19  2  0
 17 20  1  0
 16 21  1  0
  6  1  1  0
 12  7  2  0
 19 14  1  0
M  END
$$$$
