
     RDKit          3D

 21 23  0  0  0  0  0  0  0  0999 V2000
    2.4357    0.4432    6.5789 C   0  0  0  0  0  0  0  0  0  0  0  0
    1.2976    1.1467    6.9072 C   0  0  0  0  0  0  0  0  0  0  0  0
    1.3194    2.1122    7.9190 C   0  0  0  0  0  0  0  0  0  0  0  0
    2.4915    2.3684    8.6009 C   0  0  0  0  0  0  0  0  0  0  0  0
    3.6211    1.6569    8.2610 C   0  0  0  0  0  0  0  0  0  0  0  0
    3.5926    0.7143    7.2707 C   0  0  0  0  0  0  0  0  0  0  0  0
    2.5110    3.3851    9.6669 C   0  0  0  0  0  0  0  0  0  0  0  0
    1.6752    4.4784    9.5619 C   0  0  0  0  0  0  0  0  0  0  0  0
    1.7341    5.3759   10.5597 N   0  0  0  0  0  0  0  0  0  0  0  0
    2.5126    5.2771   11.5922 N   0  0  0  0  0  0  0  0  0  0  0  0
    3.3422    4.2038   11.7087 C   0  0  0  0  0  0  0  0  0  0  0  0
    3.3056    3.2919   10.7285 N   0  0  0  0  0  0  0  0  0  0  0  0
    4.1981    4.0856   12.8345 N   0  0  0  0  0  0  0  0  0  0  0  0
    0.7940    4.6151    8.4223 C   0  0  0  0  0  0  0  0  0  0  0  0
    1.3243    4.5644    7.1523 C   0  0  0  0  0  0  0  0  0  0  0  0
    0.5266    4.6919    6.0209 C   0  0  0  0  0  0  0  0  0  0  0  0
   -0.8314    4.8742    6.1647 C   0  0  0  0  0  0  0  0  0  0  0  0
   -1.3479    4.9229    7.4431 C   0  0  0  0  0  0  0  0  0  0  0  0
   -0.5587    4.7968    8.5591 C   0  0  0  0  0  0  0  0  0  0  0  0
   -1.6780    5.0080    5.0675 O   0  0  0  0  0  0  0  0  0  0  0  0
    1.1917    4.6282    4.4091 Cl  0  0  0  0  0  0  0  0  0  0  0  0
  1  2  2  0
  2  3  1  0
  3  4  2  0
  4  5  1  0
  5  6  2  0
  4  7  1  0
  7  8  1  0
  8  9  2  0
  9 10  1  0
 10 11  2  0
 11 12  1  0
 11 13  1  0
  8 14  1  0
 14 15  2  0
 15 16  1  0
 16 17  2  0
 17 18  1  0
 18 19  2  0
 17 20  1  0
 16 21  1  0
  6  1  1  0
 12  7  2  0
 19 14  1  0
M  END
$$$$
