
     RDKit          3D

 21 23  0  0  0  0  0  0  0  0999 V2000
    2.3878    0.2582    6.2029 C   0  0  0  0  0  0  0  0  0  0  0  0
    2.0131   -0.0684    7.4878 C   0  0  0  0  0  0  0  0  0  0  0  0
    2.0867    0.8758    8.5172 C   0  0  0  0  0  0  0  0  0  0  0  0
    2.5393    2.1518    8.2499 C   0  0  0  0  0  0  0  0  0  0  0  0
    2.9101    2.4631    6.9601 C   0  0  0  0  0  0  0  0  0  0  0  0
    2.8356    1.5350    5.9586 C   0  0  0  0  0  0  0  0  0  0  0  0
    2.6168    3.1436    9.3364 C   0  0  0  0  0  0  0  0  0  0  0  0
    1.9521    4.3446    9.1926 C   0  0  0  0  0  0  0  0  0  0  0  0
    2.0574    5.2137   10.2115 N   0  0  0  0  0  0  0  0  0  0  0  0
    2.7316    4.9949   11.2975 N   0  0  0  0  0  0  0  0  0  0  0  0
    3.3921    3.8145   11.4527 C   0  0  0  0  0  0  0  0  0  0  0  0
    3.3055    2.9278   10.4528 N   0  0  0  0  0  0  0  0  0  0  0  0
    4.1327    3.5647   12.6372 N   0  0  0  0  0  0  0  0  0  0  0  0
    1.1901    4.6165    7.9928 C   0  0  0  0  0  0  0  0  0  0  0  0
   -0.1574    4.8809    8.0974 C   0  0  0  0  0  0  0  0  0  0  0  0
   -0.9396    5.1468    6.9794 C   0  0  0  0  0  0  0  0  0  0  0  0
   -0.3597    5.1478    5.7297 C   0  0  0  0  0  0  0  0  0  0  0  0
    0.9911    4.8813    5.6409 C   0  0  0  0  0  0  0  0  0  0  0  0
    1.7619    4.6190    6.7460 C   0  0  0  0  0  0  0  0  0  0  0  0
   -1.0942    5.4073    4.5758 O   0  0  0  0  0  0  0  0  0  0  0  0
   -2.6472    5.4827    7.1047 Cl  0  0  0  0  0  0  0  0  0  0  0  0
  1  2  2  0
  2  3  1  0
  3  4  2  0
  4  5  1  0
  5  6  2  0
  4  7  1  0
  7  8  1  0
  8  9  2  0
  9 10  1  0
 10 11  2  0
 11 12  1  0
 11 13  1  0
  8 14  1  0
 14 15  2  0
 15 16  1  0
 16 17  2  0
 17 18  1  0
 18 19  2  0
 17 20  1  0
 16 21  1  0
  6  1  1  0
 12  7  2  0
 19 14  1  0
M  END
$$$$
