tmp_mol_0_136.sdf
     RDKit          3D

 18 18  0  0  0  0  0  0  0  0999 V2000
    2.1502   -1.2168   10.0003 C   0  0  0  0  0  0  0  0  0  0  0  0
    0.5990   -0.1449    8.5373 N   0  0  0  0  0  4  0  0  0  0  0  0
   -0.0547    0.1697    6.1186 O   0  0  0  0  0  0  0  0  0  0  0  0
    0.9336   -0.3201    9.9088 C   0  0  1  0  0  0  0  0  0  0  0  0
    1.6214    3.3939    6.2488 O   0  0  0  0  0  0  0  0  0  0  0  0
   -0.1585   -0.9858   10.7136 C   0  0  0  0  0  0  0  0  0  0  0  0
    1.2176    1.0144    7.9278 C   0  0  0  0  0  0  0  0  0  0  0  0
    0.3566    1.3294    6.6873 C   0  0  1  0  0  0  0  0  0  0  0  0
    1.0552    2.2720    5.7721 C   0  0  0  0  0  0  0  0  0  0  0  0
    2.4105    4.4128    5.8894 C   0  0  0  0  0  0  0  0  0  0  0  0
    2.8663    4.6796    4.6153 C   0  0  0  0  0  0  0  0  0  0  0  0
    3.6757    5.7654    4.3656 C   0  0  0  0  0  0  0  0  0  0  0  0
    4.0689    6.6323    5.3558 C   0  0  0  0  0  0  0  0  0  0  0  0
    3.6147    6.3693    6.6291 C   0  0  0  0  0  0  0  0  0  0  0  0
    2.8129    5.3044    6.9136 C   0  0  0  0  0  0  0  0  0  0  0  0
    2.3227    5.0267    8.3069 C   0  0  0  0  0  0  0  0  0  0  0  0
    1.0312    5.6654    8.5909 C   0  0  0  0  0  0  0  0  0  0  0  0
    0.6146    5.7970    9.8296 C   0  0  0  0  0  0  0  0  0  0  0  0
  4  1  1  6
  2  4  1  0
  2  7  1  1
  8  3  1  6
  6  4  1  6
  9  5  1  6
  5 10  1  0
  7  8  1  1
  8  9  1  0
 10 11  2  0
 10 15  1  0
 11 12  1  0
 12 13  2  0
 13 14  1  0
 14 15  2  0
 15 16  1  0
 16 17  1  1
 17 18  2  0
M  CHG  1   2   1
M  END
$$$$
