tmp_mol_0_136.sdf
     RDKit          3D

 18 18  0  0  0  0  0  0  0  0999 V2000
    1.5545   -1.6527    9.9841 C   0  0  0  0  0  0  0  0  0  0  0  0
    0.2414   -0.1413    8.6852 N   0  0  0  0  0  4  0  0  0  0  0  0
   -0.0174   -0.0361    6.1072 O   0  0  0  0  0  0  0  0  0  0  0  0
    0.6314   -0.4529   10.0172 C   0  0  1  0  0  0  0  0  0  0  0  0
    1.8806    3.0650    6.2505 O   0  0  0  0  0  0  0  0  0  0  0  0
   -0.5289   -0.8218   10.9123 C   0  0  0  0  0  0  0  0  0  0  0  0
    1.1468    0.7637    8.0072 C   0  0  0  0  0  0  0  0  0  0  0  0
    0.4571    1.1022    6.6697 C   0  0  1  0  0  0  0  0  0  0  0  0
    1.3444    1.9186    5.7978 C   0  0  0  0  0  0  0  0  0  0  0  0
    2.6231    4.1082    5.8629 C   0  0  0  0  0  0  0  0  0  0  0  0
    3.2163    4.2717    4.6286 C   0  0  0  0  0  0  0  0  0  0  0  0
    3.9592    5.3956    4.3431 C   0  0  0  0  0  0  0  0  0  0  0  0
    4.1483    6.4034    5.2571 C   0  0  0  0  0  0  0  0  0  0  0  0
    3.5565    6.2438    6.4903 C   0  0  0  0  0  0  0  0  0  0  0  0
    2.8149    5.1452    6.8084 C   0  0  0  0  0  0  0  0  0  0  0  0
    2.1731    4.9811    8.1574 C   0  0  0  0  0  0  0  0  0  0  0  0
    3.0918    5.2835    9.2624 C   0  0  0  0  0  0  0  0  0  0  0  0
    2.7055    5.1264   10.5079 C   0  0  0  0  0  0  0  0  0  0  0  0
  4  1  1  6
  2  4  1  0
  2  7  1  1
  8  3  1  6
  6  4  1  6
  9  5  1  6
  5 10  1  0
  7  8  1  1
  8  9  1  0
 10 11  2  0
 10 15  1  0
 11 12  1  0
 12 13  2  0
 13 14  1  0
 14 15  2  0
 15 16  1  0
 16 17  1  1
 17 18  2  0
M  CHG  1   2   1
M  END
$$$$
