tmp_mol_0_136.sdf
     RDKit          3D

 18 18  0  0  0  0  0  0  0  0999 V2000
    1.9002    5.2299    6.4740 C   0  0  0  0  0  0  0  0  0  0  0  0
    1.7178    2.9342    5.8480 N   0  0  0  0  0  4  0  0  0  0  0  0
   -0.5664    1.4343    6.1097 O   0  0  0  0  0  0  0  0  0  0  0  0
    2.6455    4.0027    5.9934 C   0  0  1  0  0  0  0  0  0  0  0  0
    0.1794    0.5018    9.0427 O   0  0  0  0  0  0  0  0  0  0  0  0
    3.3273    4.3867    4.7007 C   0  0  0  0  0  0  0  0  0  0  0  0
    1.4412    2.2277    7.0820 C   0  0  0  0  0  0  0  0  0  0  0  0
    0.5918    1.0079    6.6703 C   0  0  1  0  0  0  0  0  0  0  0  0
    0.4355    0.0539    7.8015 C   0  0  0  0  0  0  0  0  0  0  0  0
   -0.1295    0.0798   10.2741 C   0  0  0  0  0  0  0  0  0  0  0  0
   -0.6016   -1.1713   10.6117 C   0  0  0  0  0  0  0  0  0  0  0  0
   -0.8836   -1.4924   11.9208 C   0  0  0  0  0  0  0  0  0  0  0  0
   -0.7125   -0.5990   12.9500 C   0  0  0  0  0  0  0  0  0  0  0  0
   -0.2402    0.6510   12.6165 C   0  0  0  0  0  0  0  0  0  0  0  0
    0.0491    1.0042   11.3322 C   0  0  0  0  0  0  0  0  0  0  0  0
    0.5643    2.3712   10.9792 C   0  0  0  0  0  0  0  0  0  0  0  0
   -0.5000    3.2809   10.5365 C   0  0  0  0  0  0  0  0  0  0  0  0
   -0.2540    4.5611   10.3757 C   0  0  0  0  0  0  0  0  0  0  0  0
  4  1  1  6
  2  4  1  0
  2  7  1  1
  8  3  1  1
  6  4  1  6
  9  5  1  6
  5 10  1  0
  7  8  1  1
  8  9  1  0
 10 11  2  0
 10 15  1  0
 11 12  1  0
 12 13  2  0
 13 14  1  0
 14 15  2  0
 15 16  1  0
 16 17  1  1
 17 18  2  0
M  CHG  1   2   1
M  END
$$$$
