tmp_mol_0_136.sdf
     RDKit          3D

 18 18  0  0  0  0  0  0  0  0999 V2000
    1.8025    5.6000    6.5057 C   0  0  0  0  0  0  0  0  0  0  0  0
    1.7640    3.3306    5.7682 N   0  0  0  0  0  4  0  0  0  0  0  0
   -0.4726    1.7354    5.5867 O   0  0  0  0  0  0  0  0  0  0  0  0
    2.6366    4.3889    6.1452 C   0  0  1  0  0  0  0  0  0  0  0  0
    0.4953    0.4238    8.5176 O   0  0  0  0  0  0  0  0  0  0  0  0
    3.5723    4.8191    5.0394 C   0  0  0  0  0  0  0  0  0  0  0  0
    1.3768    2.4717    6.8685 C   0  0  0  0  0  0  0  0  0  0  0  0
    0.6395    1.2839    6.2168 C   0  0  1  0  0  0  0  0  0  0  0  0
    0.4124    0.1877    7.1970 C   0  0  0  0  0  0  0  0  0  0  0  0
    0.1343   -0.0779    9.7041 C   0  0  0  0  0  0  0  0  0  0  0  0
   -0.2425   -1.3804    9.9569 C   0  0  0  0  0  0  0  0  0  0  0  0
   -0.5922   -1.7827   11.2267 C   0  0  0  0  0  0  0  0  0  0  0  0
   -0.5850   -0.9234   12.2982 C   0  0  0  0  0  0  0  0  0  0  0  0
   -0.2083    0.3777   12.0494 C   0  0  0  0  0  0  0  0  0  0  0  0
    0.1437    0.8117   10.8062 C   0  0  0  0  0  0  0  0  0  0  0  0
    0.5534    2.2340   10.5457 C   0  0  0  0  0  0  0  0  0  0  0  0
    1.9024    2.5349   11.0420 C   0  0  0  0  0  0  0  0  0  0  0  0
    2.8788    2.7835   10.1995 C   0  0  0  0  0  0  0  0  0  0  0  0
  4  1  1  6
  2  4  1  0
  2  7  1  1
  8  3  1  1
  6  4  1  6
  9  5  1  6
  5 10  1  0
  7  8  1  1
  8  9  1  0
 10 11  2  0
 10 15  1  0
 11 12  1  0
 12 13  2  0
 13 14  1  0
 14 15  2  0
 15 16  1  0
 16 17  1  1
 17 18  2  0
M  CHG  1   2   1
M  END
$$$$
