tmp_mol_0_136.sdf
     RDKit          3D

 18 18  0  0  0  0  0  0  0  0999 V2000
    0.9571   -2.3582    9.9041 C   0  0  0  0  0  0  0  0  0  0  0  0
    0.5337   -0.3275    8.7241 N   0  0  0  0  0  4  0  0  0  0  0  0
    0.0687    0.1364    6.2993 O   0  0  0  0  0  0  0  0  0  0  0  0
    1.0024   -0.8459    9.9630 C   0  0  1  0  0  0  0  0  0  0  0  0
    2.0483    3.1792    6.5243 O   0  0  0  0  0  0  0  0  0  0  0  0
    0.1581   -0.4315   11.1458 C   0  0  0  0  0  0  0  0  0  0  0  0
    1.3452    0.7502    8.1964 C   0  0  0  0  0  0  0  0  0  0  0  0
    0.6251    1.2098    6.9121 C   0  0  1  0  0  0  0  0  0  0  0  0
    1.5220    2.0340    6.0574 C   0  0  0  0  0  0  0  0  0  0  0  0
    2.7123    4.2725    6.1323 C   0  0  0  0  0  0  0  0  0  0  0  0
    3.0678    4.5889    4.8378 C   0  0  0  0  0  0  0  0  0  0  0  0
    3.7515    5.7503    4.5548 C   0  0  0  0  0  0  0  0  0  0  0  0
    4.1124    6.6472    5.5306 C   0  0  0  0  0  0  0  0  0  0  0  0
    3.7581    6.3349    6.8242 C   0  0  0  0  0  0  0  0  0  0  0  0
    3.0818    5.1947    7.1417 C   0  0  0  0  0  0  0  0  0  0  0  0
    2.6998    4.8636    8.5570 C   0  0  0  0  0  0  0  0  0  0  0  0
    1.4609    5.5290    8.9799 C   0  0  0  0  0  0  0  0  0  0  0  0
    0.4105    4.8190    9.3229 C   0  0  0  0  0  0  0  0  0  0  0  0
  4  1  1  6
  2  4  1  0
  2  7  1  1
  8  3  1  6
  6  4  1  6
  9  5  1  6
  5 10  1  0
  7  8  1  1
  8  9  1  0
 10 11  2  0
 10 15  1  0
 11 12  1  0
 12 13  2  0
 13 14  1  0
 14 15  2  0
 15 16  1  0
 16 17  1  1
 17 18  2  0
M  CHG  1   2   1
M  END
$$$$
