tmp_mol_0_136.sdf
     RDKit          3D

 18 18  0  0  0  0  0  0  0  0999 V2000
    0.3957   -2.4385   10.1002 C   0  0  0  0  0  0  0  0  0  0  0  0
    0.4110   -0.5057    8.7003 N   0  0  0  0  0  4  0  0  0  0  0  0
    0.3157    0.2211    5.7798 O   0  0  0  0  0  0  0  0  0  0  0  0
    1.1275   -1.1633    9.7384 C   0  0  1  0  0  0  0  0  0  0  0  0
    1.7617    2.9531    6.6976 O   0  0  0  0  0  0  0  0  0  0  0  0
    1.2323   -0.3476   11.0062 C   0  0  0  0  0  0  0  0  0  0  0  0
    1.2026    0.4571    7.9623 C   0  0  0  0  0  0  0  0  0  0  0  0
    0.2578    1.0140    6.8777 C   0  0  1  0  0  0  0  0  0  0  0  0
    0.5135    2.4589    6.6310 C   0  0  0  0  0  0  0  0  0  0  0  0
    2.4812    4.0448    6.4138 C   0  0  0  0  0  0  0  0  0  0  0  0
    2.1569    5.0163    5.4901 C   0  0  0  0  0  0  0  0  0  0  0  0
    2.9791    6.1020    5.2860 C   0  0  0  0  0  0  0  0  0  0  0  0
    4.1509    6.2776    5.9807 C   0  0  0  0  0  0  0  0  0  0  0  0
    4.4772    5.3098    6.9046 C   0  0  0  0  0  0  0  0  0  0  0  0
    3.6884    4.2219    7.1330 C   0  0  0  0  0  0  0  0  0  0  0  0
    4.0538    3.1716    8.1440 C   0  0  0  0  0  0  0  0  0  0  0  0
    4.4834    3.7444    9.4260 C   0  0  0  0  0  0  0  0  0  0  0  0
    3.7311    3.6159   10.4951 C   0  0  0  0  0  0  0  0  0  0  0  0
  4  1  1  1
  2  4  1  0
  2  7  1  1
  8  3  1  6
  6  4  1  6
  9  5  1  6
  5 10  1  0
  7  8  1  1
  8  9  1  0
 10 11  2  0
 10 15  1  0
 11 12  1  0
 12 13  2  0
 13 14  1  0
 14 15  2  0
 15 16  1  0
 16 17  1  1
 17 18  2  0
M  CHG  1   2   1
M  END
$$$$
