tmp_mol_0_136.sdf
     RDKit          3D

 18 18  0  0  0  0  0  0  0  0999 V2000
    1.2719    3.9281    4.9950 C   0  0  0  0  0  0  0  0  0  0  0  0
    1.9541    1.9222    6.0933 N   0  0  0  0  0  4  0  0  0  0  0  0
    0.6352   -0.3928    5.8413 O   0  0  0  0  0  0  0  0  0  0  0  0
    2.2329    3.3133    5.9905 C   0  0  1  0  0  0  0  0  0  0  0  0
   -0.0371    0.0671    9.3845 O   0  0  0  0  0  0  0  0  0  0  0  0
    3.6272    3.6113    5.4896 C   0  0  0  0  0  0  0  0  0  0  0  0
    0.9465    1.5992    7.0826 C   0  0  0  0  0  0  0  0  0  0  0  0
    0.8708    0.0586    7.0975 C   0  0  1  0  0  0  0  0  0  0  0  0
   -0.0817   -0.4237    8.1340 C   0  0  0  0  0  0  0  0  0  0  0  0
   -0.5754   -0.0889   10.5993 C   0  0  0  0  0  0  0  0  0  0  0  0
   -1.2149   -1.2175   11.0678 C   0  0  0  0  0  0  0  0  0  0  0  0
   -1.7291   -1.2616   12.3445 C   0  0  0  0  0  0  0  0  0  0  0  0
   -1.6353   -0.2006   13.2118 C   0  0  0  0  0  0  0  0  0  0  0  0
   -0.9964    0.9276   12.7475 C   0  0  0  0  0  0  0  0  0  0  0  0
   -0.4758    1.0075   11.4903 C   0  0  0  0  0  0  0  0  0  0  0  0
    0.2198    2.2438   10.9937 C   0  0  0  0  0  0  0  0  0  0  0  0
    1.6825    2.1418   11.0740 C   0  0  0  0  0  0  0  0  0  0  0  0
    2.4337    3.1975   10.8589 C   0  0  0  0  0  0  0  0  0  0  0  0
  4  1  1  6
  2  4  1  0
  2  7  1  1
  8  3  1  6
  6  4  1  6
  9  5  1  6
  5 10  1  0
  7  8  1  1
  8  9  1  0
 10 11  2  0
 10 15  1  0
 11 12  1  0
 12 13  2  0
 13 14  1  0
 14 15  2  0
 15 16  1  0
 16 17  1  1
 17 18  2  0
M  CHG  1   2   1
M  END
$$$$
