tmp_mol_0_136.sdf
     RDKit          3D

 18 18  0  0  0  0  0  0  0  0999 V2000
    1.9507   -1.5780    9.9441 C   0  0  0  0  0  0  0  0  0  0  0  0
    0.5471   -0.5202    8.3297 N   0  0  0  0  0  4  0  0  0  0  0  0
    0.6702   -0.3171    5.4745 O   0  0  0  0  0  0  0  0  0  0  0  0
    0.8503   -0.5627    9.7188 C   0  0  1  0  0  0  0  0  0  0  0  0
    1.5830    2.9076    6.2866 O   0  0  0  0  0  0  0  0  0  0  0  0
   -0.3182   -0.9908   10.5761 C   0  0  0  0  0  0  0  0  0  0  0  0
    1.2435    0.5271    7.6108 C   0  0  0  0  0  0  0  0  0  0  0  0
    0.4426    0.7274    6.3079 C   0  0  1  0  0  0  0  0  0  0  0  0
    0.6937    2.0723    5.7228 C   0  0  0  0  0  0  0  0  0  0  0  0
    2.4125    3.9170    5.9986 C   0  0  0  0  0  0  0  0  0  0  0  0
    2.7851    4.3300    4.7366 C   0  0  0  0  0  0  0  0  0  0  0  0
    3.6483    5.3891    4.5641 C   0  0  0  0  0  0  0  0  0  0  0  0
    4.1789    6.0848    5.6228 C   0  0  0  0  0  0  0  0  0  0  0  0
    3.8081    5.6757    6.8845 C   0  0  0  0  0  0  0  0  0  0  0  0
    2.9568    4.6319    7.0935 C   0  0  0  0  0  0  0  0  0  0  0  0
    2.5584    4.1936    8.4748 C   0  0  0  0  0  0  0  0  0  0  0  0
    1.2539    4.7288    8.8848 C   0  0  0  0  0  0  0  0  0  0  0  0
    0.8780    4.6691   10.1419 C   0  0  0  0  0  0  0  0  0  0  0  0
  4  1  1  6
  2  4  1  0
  2  7  1  1
  8  3  1  6
  6  4  1  6
  9  5  1  6
  5 10  1  0
  7  8  1  1
  8  9  1  0
 10 11  2  0
 10 15  1  0
 11 12  1  0
 12 13  2  0
 13 14  1  0
 14 15  2  0
 15 16  1  0
 16 17  1  1
 17 18  2  0
M  CHG  1   2   1
M  END
$$$$
