tmp_mol_0_136.sdf
     RDKit          3D

 18 18  0  0  0  0  0  0  0  0999 V2000
    2.0688   -1.5419   10.2324 C   0  0  0  0  0  0  0  0  0  0  0  0
    0.5851   -0.3337    8.8061 N   0  0  0  0  0  4  0  0  0  0  0  0
    0.2803   -0.0807    6.3340 O   0  0  0  0  0  0  0  0  0  0  0  0
    0.8708   -0.6181   10.1703 C   0  0  1  0  0  0  0  0  0  0  0  0
    2.1136    3.0583    6.4937 O   0  0  0  0  0  0  0  0  0  0  0  0
   -0.2584   -1.3218   10.8867 C   0  0  0  0  0  0  0  0  0  0  0  0
    1.3501    0.7717    8.2664 C   0  0  0  0  0  0  0  0  0  0  0  0
    0.7135    1.0749    6.8945 C   0  0  1  0  0  0  0  0  0  0  0  0
    1.6254    1.8888    6.0458 C   0  0  0  0  0  0  0  0  0  0  0  0
    2.7876    4.1428    6.0944 C   0  0  0  0  0  0  0  0  0  0  0  0
    3.1910    4.4221    4.8054 C   0  0  0  0  0  0  0  0  0  0  0  0
    3.8803    5.5780    4.5139 C   0  0  0  0  0  0  0  0  0  0  0  0
    4.2000    6.5056    5.4752 C   0  0  0  0  0  0  0  0  0  0  0  0
    3.7978    6.2303    6.7632 C   0  0  0  0  0  0  0  0  0  0  0  0
    3.1146    5.0967    7.0890 C   0  0  0  0  0  0  0  0  0  0  0  0
    2.6801    4.8061    8.4981 C   0  0  0  0  0  0  0  0  0  0  0  0
    1.6622    5.7471    8.9825 C   0  0  0  0  0  0  0  0  0  0  0  0
    1.2189    5.6672   10.2163 C   0  0  0  0  0  0  0  0  0  0  0  0
  4  1  1  6
  2  4  1  0
  2  7  1  1
  8  3  1  6
  6  4  1  6
  9  5  1  6
  5 10  1  0
  7  8  1  1
  8  9  1  0
 10 11  2  0
 10 15  1  0
 11 12  1  0
 12 13  2  0
 13 14  1  0
 14 15  2  0
 15 16  1  0
 16 17  1  1
 17 18  2  0
M  CHG  1   2   1
M  END
$$$$
