tmp_mol_0_136.sdf
     RDKit          3D

 18 18  0  0  0  0  0  0  0  0999 V2000
    2.1474   -1.5864   10.1269 C   0  0  0  0  0  0  0  0  0  0  0  0
    0.7007   -0.4565    8.6019 N   0  0  0  0  0  4  0  0  0  0  0  0
    0.3895   -0.1973    5.9611 O   0  0  0  0  0  0  0  0  0  0  0  0
    1.0275   -0.5779    9.9810 C   0  0  1  0  0  0  0  0  0  0  0  0
    1.8637    2.9521    6.4942 O   0  0  0  0  0  0  0  0  0  0  0  0
   -0.1197   -1.0766   10.8288 C   0  0  0  0  0  0  0  0  0  0  0  0
    1.3098    0.6875    7.9550 C   0  0  0  0  0  0  0  0  0  0  0  0
    0.4596    0.9413    6.6933 C   0  0  1  0  0  0  0  0  0  0  0  0
    0.9366    2.1420    5.9550 C   0  0  0  0  0  0  0  0  0  0  0  0
    2.6288    4.0135    6.2148 C   0  0  0  0  0  0  0  0  0  0  0  0
    3.1253    4.3556    4.9744 C   0  0  0  0  0  0  0  0  0  0  0  0
    3.9037    5.4794    4.8085 C   0  0  0  0  0  0  0  0  0  0  0  0
    4.2247    6.3120    5.8527 C   0  0  0  0  0  0  0  0  0  0  0  0
    3.7296    5.9739    7.0926 C   0  0  0  0  0  0  0  0  0  0  0  0
    2.9566    4.8695    7.2945 C   0  0  0  0  0  0  0  0  0  0  0  0
    2.4212    4.5098    8.6520 C   0  0  0  0  0  0  0  0  0  0  0  0
    2.1463    5.6888    9.4832 C   0  0  0  0  0  0  0  0  0  0  0  0
    0.9574    6.2468    9.4700 C   0  0  0  0  0  0  0  0  0  0  0  0
  4  1  1  6
  2  4  1  0
  2  7  1  1
  8  3  1  6
  6  4  1  6
  9  5  1  6
  5 10  1  0
  7  8  1  1
  8  9  1  0
 10 11  2  0
 10 15  1  0
 11 12  1  0
 12 13  2  0
 13 14  1  0
 14 15  2  0
 15 16  1  0
 16 17  1  1
 17 18  2  0
M  CHG  1   2   1
M  END
$$$$
