tmp_mol_0_136.sdf
     RDKit          3D

 18 18  0  0  0  0  0  0  0  0999 V2000
    1.4226    4.9552    5.4007 C   0  0  0  0  0  0  0  0  0  0  0  0
    2.0750    2.6953    5.8037 N   0  0  0  0  0  4  0  0  0  0  0  0
    0.6338    0.5905    5.4578 O   0  0  0  0  0  0  0  0  0  0  0  0
    2.5488    4.0364    5.8251 C   0  0  1  0  0  0  0  0  0  0  0  0
    0.0130    0.6497    9.0426 O   0  0  0  0  0  0  0  0  0  0  0  0
    3.6947    4.2842    4.8717 C   0  0  0  0  0  0  0  0  0  0  0  0
    1.2122    2.3619    6.9184 C   0  0  0  0  0  0  0  0  0  0  0  0
    0.9044    0.8589    6.7587 C   0  0  1  0  0  0  0  0  0  0  0  0
   -0.1349    0.4161    7.7272 C   0  0  0  0  0  0  0  0  0  0  0  0
   -0.3619    0.1954   10.2438 C   0  0  0  0  0  0  0  0  0  0  0  0
   -1.0828   -0.9541   10.4911 C   0  0  0  0  0  0  0  0  0  0  0  0
   -1.4090   -1.3226   11.7772 C   0  0  0  0  0  0  0  0  0  0  0  0
   -1.0400   -0.5783   12.8711 C   0  0  0  0  0  0  0  0  0  0  0  0
   -0.3191    0.5696   12.6278 C   0  0  0  0  0  0  0  0  0  0  0  0
    0.0214    0.9658   11.3688 C   0  0  0  0  0  0  0  0  0  0  0  0
    0.8086    2.2205   11.1145 C   0  0  0  0  0  0  0  0  0  0  0  0
   -0.0476    3.3763   10.8188 C   0  0  0  0  0  0  0  0  0  0  0  0
    0.4580    4.5884   10.7992 C   0  0  0  0  0  0  0  0  0  0  0  0
  4  1  1  6
  2  4  1  0
  2  7  1  1
  8  3  1  6
  6  4  1  6
  9  5  1  6
  5 10  1  0
  7  8  1  1
  8  9  1  0
 10 11  2  0
 10 15  1  0
 11 12  1  0
 12 13  2  0
 13 14  1  0
 14 15  2  0
 15 16  1  0
 16 17  1  1
 17 18  2  0
M  CHG  1   2   1
M  END
$$$$
