tmp_mol_0_136.sdf
     RDKit          3D

 18 18  0  0  0  0  0  0  0  0999 V2000
    0.1223   -1.8510   10.2695 C   0  0  0  0  0  0  0  0  0  0  0  0
    0.3320    0.0676    8.8659 N   0  0  0  0  0  4  0  0  0  0  0  0
   -1.0911    0.6525    6.3700 O   0  0  0  0  0  0  0  0  0  0  0  0
    1.0786   -0.9623    9.5026 C   0  0  1  0  0  0  0  0  0  0  0  0
    1.4658    3.2304    6.5793 O   0  0  0  0  0  0  0  0  0  0  0  0
    2.0865   -0.4439   10.5020 C   0  0  0  0  0  0  0  0  0  0  0  0
    0.9143    0.5288    7.6223 C   0  0  0  0  0  0  0  0  0  0  0  0
   -0.1610    1.4281    6.9789 C   0  0  1  0  0  0  0  0  0  0  0  0
    0.4557    2.4732    6.1178 C   0  0  0  0  0  0  0  0  0  0  0  0
    1.9750    4.4657    6.5118 C   0  0  0  0  0  0  0  0  0  0  0  0
    1.2827    5.6156    6.1946 C   0  0  0  0  0  0  0  0  0  0  0  0
    1.9173    6.8373    6.1593 C   0  0  0  0  0  0  0  0  0  0  0  0
    3.2555    6.9788    6.4348 C   0  0  0  0  0  0  0  0  0  0  0  0
    3.9495    5.8327    6.7530 C   0  0  0  0  0  0  0  0  0  0  0  0
    3.3551    4.6069    6.7973 C   0  0  0  0  0  0  0  0  0  0  0  0
    4.1219    3.3622    7.1460 C   0  0  0  0  0  0  0  0  0  0  0  0
    3.9329    2.9532    8.5436 C   0  0  0  0  0  0  0  0  0  0  0  0
    4.3064    3.7451    9.5227 C   0  0  0  0  0  0  0  0  0  0  0  0
  4  1  1  1
  2  4  1  0
  2  7  1  1
  8  3  1  6
  6  4  1  6
  9  5  1  6
  5 10  1  0
  7  8  1  1
  8  9  1  0
 10 11  2  0
 10 15  1  0
 11 12  1  0
 12 13  2  0
 13 14  1  0
 14 15  2  0
 15 16  1  0
 16 17  1  1
 17 18  2  0
M  CHG  1   2   1
M  END
$$$$
