tmp_mol_0_136.sdf
     RDKit          3D

 18 18  0  0  0  0  0  0  0  0999 V2000
    1.7486   -0.9301   10.8189 C   0  0  0  0  0  0  0  0  0  0  0  0
    1.4201   -0.5224    8.4906 N   0  0  0  0  0  4  0  0  0  0  0  0
    0.1206    0.0941    6.5978 O   0  0  0  0  0  0  0  0  0  0  0  0
    0.7498   -0.9183    9.6811 C   0  0  1  0  0  0  0  0  0  0  0  0
    1.9571    3.2311    6.4474 O   0  0  0  0  0  0  0  0  0  0  0  0
    0.1607   -2.3079    9.6053 C   0  0  0  0  0  0  0  0  0  0  0  0
    1.5182    0.9133    8.3244 C   0  0  0  0  0  0  0  0  0  0  0  0
    0.6617    1.2382    7.0835 C   0  0  1  0  0  0  0  0  0  0  0  0
    1.4280    2.0463    6.0967 C   0  0  0  0  0  0  0  0  0  0  0  0
    2.6800    4.2483    5.9652 C   0  0  0  0  0  0  0  0  0  0  0  0
    3.0489    4.4333    4.6492 C   0  0  0  0  0  0  0  0  0  0  0  0
    3.7957    5.5264    4.2699 C   0  0  0  0  0  0  0  0  0  0  0  0
    4.2089    6.4813    5.1667 C   0  0  0  0  0  0  0  0  0  0  0  0
    3.8413    6.3002    6.4815 C   0  0  0  0  0  0  0  0  0  0  0  0
    3.1033    5.2308    6.8934 C   0  0  0  0  0  0  0  0  0  0  0  0
    2.7074    5.0428    8.3310 C   0  0  0  0  0  0  0  0  0  0  0  0
    1.4320    5.6936    8.6571 C   0  0  0  0  0  0  0  0  0  0  0  0
    1.0526    5.8195    9.9082 C   0  0  0  0  0  0  0  0  0  0  0  0
  4  1  1  1
  2  4  1  0
  2  7  1  1
  8  3  1  6
  6  4  1  6
  9  5  1  6
  5 10  1  0
  7  8  1  1
  8  9  1  0
 10 11  2  0
 10 15  1  0
 11 12  1  0
 12 13  2  0
 13 14  1  0
 14 15  2  0
 15 16  1  0
 16 17  1  1
 17 18  2  0
M  CHG  1   2   1
M  END
$$$$
