tmp_mol_0_136.sdf
     RDKit          3D

 18 18  0  0  0  0  0  0  0  0999 V2000
   -0.2968   -1.4389   10.2035 C   0  0  0  0  0  0  0  0  0  0  0  0
    0.5484    0.2653    8.7624 N   0  0  0  0  0  4  0  0  0  0  0  0
   -0.2727    0.0985    5.9075 O   0  0  0  0  0  0  0  0  0  0  0  0
    0.9211   -0.9056    9.4790 C   0  0  1  0  0  0  0  0  0  0  0  0
    1.6322    3.1854    6.1615 O   0  0  0  0  0  0  0  0  0  0  0  0
    1.9776   -0.6560   10.5303 C   0  0  0  0  0  0  0  0  0  0  0  0
    1.3509    0.5084    7.5812 C   0  0  0  0  0  0  0  0  0  0  0  0
    0.3771    1.1038    6.5437 C   0  0  1  0  0  0  0  0  0  0  0  0
    1.0668    2.0766    5.6539 C   0  0  0  0  0  0  0  0  0  0  0  0
    2.4495    4.1949    5.8409 C   0  0  0  0  0  0  0  0  0  0  0  0
    2.9675    4.4573    4.5899 C   0  0  0  0  0  0  0  0  0  0  0  0
    3.8007    5.5334    4.3799 C   0  0  0  0  0  0  0  0  0  0  0  0
    4.1576    6.3946    5.3886 C   0  0  0  0  0  0  0  0  0  0  0  0
    3.6412    6.1361    6.6389 C   0  0  0  0  0  0  0  0  0  0  0  0
    2.8142    5.0807    6.8841 C   0  0  0  0  0  0  0  0  0  0  0  0
    2.2560    4.8077    8.2525 C   0  0  0  0  0  0  0  0  0  0  0  0
    1.2799    5.8188    8.6783 C   0  0  0  0  0  0  0  0  0  0  0  0
    0.6961    5.7246    9.8511 C   0  0  0  0  0  0  0  0  0  0  0  0
  4  1  1  1
  2  4  1  0
  2  7  1  1
  8  3  1  6
  6  4  1  6
  9  5  1  6
  5 10  1  0
  7  8  1  1
  8  9  1  0
 10 11  2  0
 10 15  1  0
 11 12  1  0
 12 13  2  0
 13 14  1  0
 14 15  2  0
 15 16  1  0
 16 17  1  1
 17 18  2  0
M  CHG  1   2   1
M  END
$$$$
