tmp_mol_0_136.sdf
     RDKit          3D

 18 18  0  0  0  0  0  0  0  0999 V2000
    3.0577   -1.3090    9.6195 C   0  0  0  0  0  0  0  0  0  0  0  0
    1.4636   -0.4071    8.0895 N   0  0  0  0  0  4  0  0  0  0  0  0
    0.0974    0.7697    6.0670 O   0  0  0  0  0  0  0  0  0  0  0  0
    1.6360   -0.8200    9.4398 C   0  0  1  0  0  0  0  0  0  0  0  0
    1.2648    3.6961    7.2404 O   0  0  0  0  0  0  0  0  0  0  0  0
    0.7299   -1.9613    9.8396 C   0  0  0  0  0  0  0  0  0  0  0  0
    1.5791    1.0238    7.8960 C   0  0  0  0  0  0  0  0  0  0  0  0
    0.2565    1.4517    7.2277 C   0  0  1  0  0  0  0  0  0  0  0  0
    0.1664    2.9323    7.1109 C   0  0  0  0  0  0  0  0  0  0  0  0
    1.6760    4.8847    7.6966 C   0  0  0  0  0  0  0  0  0  0  0  0
    0.9661    5.7292    8.5243 C   0  0  0  0  0  0  0  0  0  0  0  0
    1.4971    6.9326    8.9320 C   0  0  0  0  0  0  0  0  0  0  0  0
    2.7456    7.3541    8.5445 C   0  0  0  0  0  0  0  0  0  0  0  0
    3.4577    6.5128    7.7189 C   0  0  0  0  0  0  0  0  0  0  0  0
    2.9642    5.3149    7.2950 C   0  0  0  0  0  0  0  0  0  0  0  0
    3.7499    4.4041    6.3939 C   0  0  0  0  0  0  0  0  0  0  0  0
    3.7969    4.8825    5.0064 C   0  0  0  0  0  0  0  0  0  0  0  0
    4.9019    4.7740    4.3046 C   0  0  0  0  0  0  0  0  0  0  0  0
  4  1  1  6
  2  4  1  0
  2  7  1  1
  8  3  1  6
  6  4  1  6
  9  5  1  6
  5 10  1  0
  7  8  1  1
  8  9  1  0
 10 11  2  0
 10 15  1  0
 11 12  1  0
 12 13  2  0
 13 14  1  0
 14 15  2  0
 15 16  1  0
 16 17  1  1
 17 18  2  0
M  CHG  1   2   1
M  END
$$$$
