tmp_mol_0_136.sdf
     RDKit          3D

 18 18  0  0  0  0  0  0  0  0999 V2000
    2.1593   -0.9335   10.2932 C   0  0  0  0  0  0  0  0  0  0  0  0
    0.6250   -0.3458    8.5623 N   0  0  0  0  0  4  0  0  0  0  0  0
   -0.2758    0.1856    6.4274 O   0  0  0  0  0  0  0  0  0  0  0  0
    0.7045   -0.7185    9.9328 C   0  0  1  0  0  0  0  0  0  0  0  0
    1.6424    3.2765    6.4326 O   0  0  0  0  0  0  0  0  0  0  0  0
   -0.0164   -2.0088   10.2476 C   0  0  0  0  0  0  0  0  0  0  0  0
    0.8236    1.0699    8.3287 C   0  0  0  0  0  0  0  0  0  0  0  0
    0.2079    1.3431    6.9411 C   0  0  1  0  0  0  0  0  0  0  0  0
    1.1602    2.0771    6.0644 C   0  0  0  0  0  0  0  0  0  0  0  0
    2.4271    4.2738    6.0089 C   0  0  0  0  0  0  0  0  0  0  0  0
    2.9744    4.4003    4.7492 C   0  0  0  0  0  0  0  0  0  0  0  0
    3.7687    5.4783    4.4272 C   0  0  0  0  0  0  0  0  0  0  0  0
    4.0563    6.4745    5.3280 C   0  0  0  0  0  0  0  0  0  0  0  0
    3.5105    6.3518    6.5864 C   0  0  0  0  0  0  0  0  0  0  0  0
    2.7204    5.2991    6.9408 C   0  0  0  0  0  0  0  0  0  0  0  0
    2.1296    5.1750    8.3172 C   0  0  0  0  0  0  0  0  0  0  0  0
    1.7565    6.4734    8.8927 C   0  0  0  0  0  0  0  0  0  0  0  0
    2.5634    7.0842    9.7300 C   0  0  0  0  0  0  0  0  0  0  0  0
  4  1  1  6
  2  4  1  0
  2  7  1  1
  8  3  1  6
  6  4  1  6
  9  5  1  6
  5 10  1  0
  7  8  1  1
  8  9  1  0
 10 11  2  0
 10 15  1  0
 11 12  1  0
 12 13  2  0
 13 14  1  0
 14 15  2  0
 15 16  1  0
 16 17  1  1
 17 18  2  0
M  CHG  1   2   1
M  END
$$$$
