tmp_mol_0_136.sdf
     RDKit          3D

 18 18  0  0  0  0  0  0  0  0999 V2000
    0.0770   -2.2373    7.4871 C   0  0  0  0  0  0  0  0  0  0  0  0
    0.4394   -0.0968    8.4784 N   0  0  0  0  0  4  0  0  0  0  0  0
   -0.8203    1.9332    8.8886 O   0  0  0  0  0  0  0  0  0  0  0  0
    1.0726   -1.3370    8.1877 C   0  0  1  0  0  0  0  0  0  0  0  0
    2.0671    3.9956    8.0949 O   0  0  0  0  0  0  0  0  0  0  0  0
    1.5366   -2.0782    9.4201 C   0  0  0  0  0  0  0  0  0  0  0  0
    1.2925    1.0566    8.2779 C   0  0  0  0  0  0  0  0  0  0  0  0
    0.4959    2.2533    8.8367 C   0  0  1  0  0  0  0  0  0  0  0  0
    0.8157    3.5051    8.0985 C   0  0  0  0  0  0  0  0  0  0  0  0
    2.7497    5.1462    8.0953 C   0  0  0  0  0  0  0  0  0  0  0  0
    3.0967    5.8867    9.2058 C   0  0  0  0  0  0  0  0  0  0  0  0
    3.8065    7.0602    9.0811 C   0  0  0  0  0  0  0  0  0  0  0  0
    4.2043    7.5526    7.8620 C   0  0  0  0  0  0  0  0  0  0  0  0
    3.8603    6.8151    6.7511 C   0  0  0  0  0  0  0  0  0  0  0  0
    3.1583    5.6497    6.8361 C   0  0  0  0  0  0  0  0  0  0  0  0
    2.7882    4.8524    5.6171 C   0  0  0  0  0  0  0  0  0  0  0  0
    3.8117    3.8637    5.2546 C   0  0  0  0  0  0  0  0  0  0  0  0
    3.7184    3.1953    4.1278 C   0  0  0  0  0  0  0  0  0  0  0  0
  4  1  1  1
  2  4  1  0
  2  7  1  1
  8  3  1  6
  6  4  1  6
  9  5  1  6
  5 10  1  0
  7  8  1  1
  8  9  1  0
 10 11  2  0
 10 15  1  0
 11 12  1  0
 12 13  2  0
 13 14  1  0
 14 15  2  0
 15 16  1  0
 16 17  1  1
 17 18  2  0
M  CHG  1   2   1
M  END
$$$$
