tmp_mol_0_136.sdf
     RDKit          3D

 18 18  0  0  0  0  0  0  0  0999 V2000
    4.5428    3.9451    5.4361 C   0  0  0  0  0  0  0  0  0  0  0  0
    2.1866    4.0972    5.7839 N   0  0  0  0  0  4  0  0  0  0  0  0
    0.3618    4.3205    7.9693 O   0  0  0  0  0  0  0  0  0  0  0  0
    3.1737    3.7639    4.8153 C   0  0  1  0  0  0  0  0  0  0  0  0
   -0.0498    1.6602    8.9483 O   0  0  0  0  0  0  0  0  0  0  0  0
    3.1329    4.6446    3.5881 C   0  0  0  0  0  0  0  0  0  0  0  0
    1.8820    3.0200    6.7032 C   0  0  0  0  0  0  0  0  0  0  0  0
    0.4196    3.2546    7.1339 C   0  0  1  0  0  0  0  0  0  0  0  0
   -0.1948    2.0045    7.6571 C   0  0  0  0  0  0  0  0  0  0  0  0
   -0.2571    0.6503    9.8010 C   0  0  0  0  0  0  0  0  0  0  0  0
   -0.4807   -0.6680    9.4629 C   0  0  0  0  0  0  0  0  0  0  0  0
   -0.6795   -1.6241   10.4338 C   0  0  0  0  0  0  0  0  0  0  0  0
   -0.6657   -1.3246   11.7743 C   0  0  0  0  0  0  0  0  0  0  0  0
   -0.4417   -0.0093   12.1154 C   0  0  0  0  0  0  0  0  0  0  0  0
   -0.2414    0.9638   11.1821 C   0  0  0  0  0  0  0  0  0  0  0  0
    0.0025    2.3965   11.5653 C   0  0  0  0  0  0  0  0  0  0  0  0
    1.4311    2.7185   11.6739 C   0  0  0  0  0  0  0  0  0  0  0  0
    1.8298    3.9699   11.6852 C   0  0  0  0  0  0  0  0  0  0  0  0
  4  1  1  1
  2  4  1  0
  2  7  1  1
  8  3  1  1
  6  4  1  6
  9  5  1  6
  5 10  1  0
  7  8  1  1
  8  9  1  0
 10 11  2  0
 10 15  1  0
 11 12  1  0
 12 13  2  0
 13 14  1  0
 14 15  2  0
 15 16  1  0
 16 17  1  1
 17 18  2  0
M  CHG  1   2   1
M  END
$$$$
