tmp_mol_0_136.sdf
     RDKit          3D

 18 18  0  0  0  0  0  0  0  0999 V2000
   -1.0583    0.0239    5.9319 C   0  0  0  0  0  0  0  0  0  0  0  0
    0.3298    0.3395    7.8474 N   0  0  0  0  0  4  0  0  0  0  0  0
   -0.1680    1.4138   10.1067 O   0  0  0  0  0  0  0  0  0  0  0  0
    0.3168   -0.1915    6.5278 C   0  0  1  0  0  0  0  0  0  0  0  0
    1.6386    4.3267    8.8952 O   0  0  0  0  0  0  0  0  0  0  0  0
    0.5854   -1.6776    6.4754 C   0  0  0  0  0  0  0  0  0  0  0  0
    0.6350    1.7543    7.9057 C   0  0  0  0  0  0  0  0  0  0  0  0
    0.7852    2.0762    9.4067 C   0  0  1  0  0  0  0  0  0  0  0  0
    0.8380    3.5449    9.6398 C   0  0  0  0  0  0  0  0  0  0  0  0
    2.0705    5.5875    8.7783 C   0  0  0  0  0  0  0  0  0  0  0  0
    1.7674    6.6338    9.6243 C   0  0  0  0  0  0  0  0  0  0  0  0
    2.2763    7.8941    9.4024 C   0  0  0  0  0  0  0  0  0  0  0  0
    3.1030    8.1770    8.3426 C   0  0  0  0  0  0  0  0  0  0  0  0
    3.4085    7.1342    7.4965 C   0  0  0  0  0  0  0  0  0  0  0  0
    2.9232    5.8743    7.6845 C   0  0  0  0  0  0  0  0  0  0  0  0
    3.2631    4.7433    6.7550 C   0  0  0  0  0  0  0  0  0  0  0  0
    2.8562    5.0073    5.3689 C   0  0  0  0  0  0  0  0  0  0  0  0
    3.2198    4.1931    4.4045 C   0  0  0  0  0  0  0  0  0  0  0  0
  4  1  1  1
  2  4  1  0
  2  7  1  1
  8  3  1  1
  6  4  1  6
  9  5  1  6
  5 10  1  0
  7  8  1  1
  8  9  1  0
 10 11  2  0
 10 15  1  0
 11 12  1  0
 12 13  2  0
 13 14  1  0
 14 15  2  0
 15 16  1  0
 16 17  1  1
 17 18  2  0
M  CHG  1   2   1
M  END
$$$$
