tmp_mol_0_136.sdf
     RDKit          3D

 18 18  0  0  0  0  0  0  0  0999 V2000
   -1.3340   -0.3114    5.9638 C   0  0  0  0  0  0  0  0  0  0  0  0
    0.7934    0.1727    6.9309 N   0  0  0  0  0  4  0  0  0  0  0  0
    1.0056    0.6225    9.5241 O   0  0  0  0  0  0  0  0  0  0  0  0
    0.1372   -0.0765    5.6937 C   0  0  1  0  0  0  0  0  0  0  0  0
    2.0543    3.9881    8.6387 O   0  0  0  0  0  0  0  0  0  0  0  0
    0.6494   -1.3053    4.9786 C   0  0  0  0  0  0  0  0  0  0  0  0
    0.7171    1.5523    7.3660 C   0  0  0  0  0  0  0  0  0  0  0  0
    1.4757    1.5976    8.7083 C   0  0  1  0  0  0  0  0  0  0  0  0
    1.4652    2.9685    9.2867 C   0  0  0  0  0  0  0  0  0  0  0  0
    2.4329    5.2615    8.7974 C   0  0  0  0  0  0  0  0  0  0  0  0
    2.2389    6.0345    9.9231 C   0  0  0  0  0  0  0  0  0  0  0  0
    2.6773    7.3390    9.9705 C   0  0  0  0  0  0  0  0  0  0  0  0
    3.3240    7.9360    8.9159 C   0  0  0  0  0  0  0  0  0  0  0  0
    3.5203    7.1666    7.7907 C   0  0  0  0  0  0  0  0  0  0  0  0
    3.0999    5.8726    7.7077 C   0  0  0  0  0  0  0  0  0  0  0  0
    3.3194    5.0417    6.4747 C   0  0  0  0  0  0  0  0  0  0  0  0
    2.2752    5.2436    5.4622 C   0  0  0  0  0  0  0  0  0  0  0  0
    2.4940    6.0274    4.4311 C   0  0  0  0  0  0  0  0  0  0  0  0
  4  1  1  1
  2  4  1  0
  2  7  1  1
  8  3  1  1
  6  4  1  6
  9  5  1  6
  5 10  1  0
  7  8  1  1
  8  9  1  0
 10 11  2  0
 10 15  1  0
 11 12  1  0
 12 13  2  0
 13 14  1  0
 14 15  2  0
 15 16  1  0
 16 17  1  1
 17 18  2  0
M  CHG  1   2   1
M  END
$$$$
