tmp_mol_0_136.sdf
     RDKit          3D

 18 18  0  0  0  0  0  0  0  0999 V2000
    1.3474   -1.3064   10.3950 C   0  0  0  0  0  0  0  0  0  0  0  0
    0.0490   -0.1089    8.7902 N   0  0  0  0  0  4  0  0  0  0  0  0
   -0.0377    0.0996    6.3187 O   0  0  0  0  0  0  0  0  0  0  0  0
    0.1721   -0.3759   10.1820 C   0  0  1  0  0  0  0  0  0  0  0  0
    2.0844    3.0487    6.4462 O   0  0  0  0  0  0  0  0  0  0  0  0
   -1.0381   -1.0622   10.7716 C   0  0  0  0  0  0  0  0  0  0  0  0
    0.9557    0.9127    8.3081 C   0  0  0  0  0  0  0  0  0  0  0  0
    0.4948    1.2186    6.8682 C   0  0  1  0  0  0  0  0  0  0  0  0
    1.5824    1.8572    6.0788 C   0  0  0  0  0  0  0  0  0  0  0  0
    2.5196    4.2104    5.9453 C   0  0  0  0  0  0  0  0  0  0  0  0
    2.6913    4.5079    4.6096 C   0  0  0  0  0  0  0  0  0  0  0  0
    3.1454    5.7458    4.2124 C   0  0  0  0  0  0  0  0  0  0  0  0
    3.4478    6.7406    5.1100 C   0  0  0  0  0  0  0  0  0  0  0  0
    3.2764    6.4472    6.4446 C   0  0  0  0  0  0  0  0  0  0  0  0
    2.8296    5.2334    6.8745 C   0  0  0  0  0  0  0  0  0  0  0  0
    2.6459    4.9237    8.3337 C   0  0  0  0  0  0  0  0  0  0  0  0
    3.9191    4.8500    9.0618 C   0  0  0  0  0  0  0  0  0  0  0  0
    3.9313    4.8198   10.3749 C   0  0  0  0  0  0  0  0  0  0  0  0
  4  1  1  6
  2  4  1  0
  2  7  1  1
  8  3  1  6
  6  4  1  6
  9  5  1  6
  5 10  1  0
  7  8  1  1
  8  9  1  0
 10 11  2  0
 10 15  1  0
 11 12  1  0
 12 13  2  0
 13 14  1  0
 14 15  2  0
 15 16  1  0
 16 17  1  1
 17 18  2  0
M  CHG  1   2   1
M  END
$$$$
