
     RDKit          3D

 23 25  0  0  0  0  0  0  0  0999 V2000
   -1.0868    3.2354   12.9050 C   0  0  0  0  0  0  0  0  0  0  0  0
    0.2093    3.6329   12.2237 C   0  0  0  0  0  0  0  0  0  0  0  0
    1.1568    3.9294   12.9570 O   0  0  0  0  0  0  0  0  0  0  0  0
    0.3213    3.6608   10.8320 N   0  0  0  0  0  0  0  0  0  0  0  0
    1.4522    4.1493   10.0948 C   0  0  0  0  0  0  0  0  0  0  0  0
    2.2129    3.0381    9.4161 C   0  0  0  0  0  0  0  0  0  0  0  0
    1.4712    2.3165    8.3871 C   0  0  0  0  0  0  0  0  0  0  0  0
    0.9989    2.7340    7.1710 C   0  0  0  0  0  0  0  0  0  0  0  0
    0.3569    1.6544    6.6246 N   0  0  0  0  0  0  0  0  0  0  0  0
    0.4020    0.5990    7.4220 C   0  0  0  0  0  0  0  0  0  0  0  0
    1.0880    0.9765    8.5269 C   0  0  0  0  0  0  0  0  0  0  0  0
    1.3094    0.0862    9.5643 C   0  0  0  0  0  0  0  0  0  0  0  0
    0.8395   -1.2296    9.5180 C   0  0  0  0  0  0  0  0  0  0  0  0
    0.1460   -1.5985    8.3922 C   0  0  0  0  0  0  0  0  0  0  0  0
   -0.0630   -0.7046    7.3772 C   0  0  0  0  0  0  0  0  0  0  0  0
    1.0965   -2.0629   10.5872 O   0  0  0  0  0  0  0  0  0  0  0  0
    1.2706   -3.4494   10.4658 C   0  0  0  0  0  0  0  0  0  0  0  0
    1.0826    4.0240    6.5064 C   0  0  0  0  0  0  0  0  0  0  0  0
    1.3260    4.0341    5.1280 C   0  0  0  0  0  0  0  0  0  0  0  0
    1.4307    5.2227    4.4369 C   0  0  0  0  0  0  0  0  0  0  0  0
    1.3020    6.4419    5.0649 C   0  0  0  0  0  0  0  0  0  0  0  0
    1.0638    6.4553    6.4131 C   0  0  0  0  0  0  0  0  0  0  0  0
    0.9630    5.2377    7.0851 C   0  0  0  0  0  0  0  0  0  0  0  0
  1  2  1  0
  2  3  2  0
  2  4  1  0
  4  5  1  0
  5  6  1  0
  6  7  1  0
  7  8  2  0
  8  9  1  0
  9 10  1  0
 10 11  2  0
 11 12  1  0
 12 13  2  0
 13 14  1  0
 14 15  2  0
 13 16  1  0
 16 17  1  0
  8 18  1  0
 18 19  2  0
 19 20  1  0
 20 21  2  0
 21 22  1  0
 22 23  2  0
 11  7  1  0
 15 10  1  0
 23 18  1  0
M  END
$$$$
