
     RDKit          3D

 23 25  0  0  0  0  0  0  0  0999 V2000
   -0.6712   -0.8835    8.6554 C   0  0  0  0  0  0  0  0  0  0  0  0
    0.6393   -0.2942    8.1685 C   0  0  0  0  0  0  0  0  0  0  0  0
    1.6616   -0.9500    8.3881 O   0  0  0  0  0  0  0  0  0  0  0  0
    0.6831    0.9329    7.5035 N   0  0  0  0  0  0  0  0  0  0  0  0
    1.8692    1.5727    7.0083 C   0  0  0  0  0  0  0  0  0  0  0  0
    2.4276    2.5741    7.9878 C   0  0  0  0  0  0  0  0  0  0  0  0
    1.6577    3.8065    8.1222 C   0  0  0  0  0  0  0  0  0  0  0  0
    0.7407    4.1858    9.0664 C   0  0  0  0  0  0  0  0  0  0  0  0
    0.3118    5.4329    8.6963 N   0  0  0  0  0  0  0  0  0  0  0  0
    0.9031    5.8484    7.5875 C   0  0  0  0  0  0  0  0  0  0  0  0
    1.7465    4.8607    7.2041 C   0  0  0  0  0  0  0  0  0  0  0  0
    2.5214    4.9911    6.0638 C   0  0  0  0  0  0  0  0  0  0  0  0
    2.4685    6.1370    5.2649 C   0  0  0  0  0  0  0  0  0  0  0  0
    1.6095    7.1300    5.6654 C   0  0  0  0  0  0  0  0  0  0  0  0
    0.8515    6.9831    6.7955 C   0  0  0  0  0  0  0  0  0  0  0  0
    3.2684    6.1997    4.1425 O   0  0  0  0  0  0  0  0  0  0  0  0
    3.1454    7.1899    3.1566 C   0  0  0  0  0  0  0  0  0  0  0  0
    0.2370    3.4923   10.2403 C   0  0  0  0  0  0  0  0  0  0  0  0
    0.4552    2.1124   10.3277 C   0  0  0  0  0  0  0  0  0  0  0  0
   -0.0073    1.3901   11.4073 C   0  0  0  0  0  0  0  0  0  0  0  0
   -0.6981    1.9872   12.4387 C   0  0  0  0  0  0  0  0  0  0  0  0
   -0.9228    3.3362   12.3735 C   0  0  0  0  0  0  0  0  0  0  0  0
   -0.4433    4.0401   11.2695 C   0  0  0  0  0  0  0  0  0  0  0  0
  1  2  1  0
  2  3  2  0
  2  4  1  0
  4  5  1  0
  5  6  1  0
  6  7  1  0
  7  8  2  0
  8  9  1  0
  9 10  1  0
 10 11  2  0
 11 12  1  0
 12 13  2  0
 13 14  1  0
 14 15  2  0
 13 16  1  0
 16 17  1  0
  8 18  1  0
 18 19  2  0
 19 20  1  0
 20 21  2  0
 21 22  1  0
 22 23  2  0
 11  7  1  0
 15 10  1  0
 23 18  1  0
M  END
$$$$
