
     RDKit          3D

 23 25  0  0  0  0  0  0  0  0999 V2000
    4.7545    0.2434    5.8797 C   0  0  0  0  0  0  0  0  0  0  0  0
    3.5030    1.0993    5.8236 C   0  0  0  0  0  0  0  0  0  0  0  0
    2.5466    0.6479    5.1872 O   0  0  0  0  0  0  0  0  0  0  0  0
    3.4398    2.3391    6.4630 N   0  0  0  0  0  0  0  0  0  0  0  0
    2.3123    3.2279    6.4521 C   0  0  0  0  0  0  0  0  0  0  0  0
    1.1630    2.7002    7.2735 C   0  0  0  0  0  0  0  0  0  0  0  0
    0.8909    3.4353    8.5045 C   0  0  0  0  0  0  0  0  0  0  0  0
    0.7081    4.7755    8.7201 C   0  0  0  0  0  0  0  0  0  0  0  0
    0.5074    4.9170   10.0677 N   0  0  0  0  0  0  0  0  0  0  0  0
    0.5538    3.7538   10.6975 C   0  0  0  0  0  0  0  0  0  0  0  0
    0.7906    2.8112    9.7545 C   0  0  0  0  0  0  0  0  0  0  0  0
    0.8968    1.4738   10.0979 C   0  0  0  0  0  0  0  0  0  0  0  0
    0.7655    1.0408   11.4206 C   0  0  0  0  0  0  0  0  0  0  0  0
    0.5257    2.0069   12.3659 C   0  0  0  0  0  0  0  0  0  0  0  0
    0.4239    3.3239   12.0074 C   0  0  0  0  0  0  0  0  0  0  0  0
    0.8828   -0.3070   11.6913 O   0  0  0  0  0  0  0  0  0  0  0  0
   -0.2151   -1.1552   11.8980 C   0  0  0  0  0  0  0  0  0  0  0  0
    0.7212    5.9007    7.8001 C   0  0  0  0  0  0  0  0  0  0  0  0
    0.7711    7.1893    8.3446 C   0  0  0  0  0  0  0  0  0  0  0  0
    0.7727    8.3018    7.5301 C   0  0  0  0  0  0  0  0  0  0  0  0
    0.7255    8.1972    6.1574 C   0  0  0  0  0  0  0  0  0  0  0  0
    0.6760    6.9461    5.6035 C   0  0  0  0  0  0  0  0  0  0  0  0
    0.6756    5.8399    6.4524 C   0  0  0  0  0  0  0  0  0  0  0  0
  1  2  1  0
  2  3  2  0
  2  4  1  0
  4  5  1  0
  5  6  1  0
  6  7  1  0
  7  8  2  0
  8  9  1  0
  9 10  1  0
 10 11  2  0
 11 12  1  0
 12 13  2  0
 13 14  1  0
 14 15  2  0
 13 16  1  0
 16 17  1  0
  8 18  1  0
 18 19  2  0
 19 20  1  0
 20 21  2  0
 21 22  1  0
 22 23  2  0
 11  7  1  0
 15 10  1  0
 23 18  1  0
M  END
$$$$
