
     RDKit          3D

 23 25  0  0  0  0  0  0  0  0999 V2000
   -0.7897   -1.3320    7.9969 C   0  0  0  0  0  0  0  0  0  0  0  0
   -0.0659   -0.0882    7.5163 C   0  0  0  0  0  0  0  0  0  0  0  0
   -0.7499    0.7749    6.9589 O   0  0  0  0  0  0  0  0  0  0  0  0
    1.3097    0.0693    7.6978 N   0  0  0  0  0  0  0  0  0  0  0  0
    2.0793    1.2135    7.2979 C   0  0  0  0  0  0  0  0  0  0  0  0
    2.5031    2.0548    8.4755 C   0  0  0  0  0  0  0  0  0  0  0  0
    1.5979    3.1479    8.8152 C   0  0  0  0  0  0  0  0  0  0  0  0
    1.3719    4.3449    8.1888 C   0  0  0  0  0  0  0  0  0  0  0  0
    0.4369    4.9974    8.9479 N   0  0  0  0  0  0  0  0  0  0  0  0
    0.0708    4.2829   10.0001 C   0  0  0  0  0  0  0  0  0  0  0  0
    0.7739    3.1268    9.9477 C   0  0  0  0  0  0  0  0  0  0  0  0
    0.6155    2.1543   10.9208 C   0  0  0  0  0  0  0  0  0  0  0  0
   -0.2689    2.3206   11.9906 C   0  0  0  0  0  0  0  0  0  0  0  0
   -0.9750    3.4971   12.0311 C   0  0  0  0  0  0  0  0  0  0  0  0
   -0.8049    4.4467   11.0602 C   0  0  0  0  0  0  0  0  0  0  0  0
   -0.3767    1.3105   12.9243 O   0  0  0  0  0  0  0  0  0  0  0  0
   -0.9688    1.4792   14.1847 C   0  0  0  0  0  0  0  0  0  0  0  0
    1.9524    4.9168    6.9851 C   0  0  0  0  0  0  0  0  0  0  0  0
    1.6438    6.2475    6.6797 C   0  0  0  0  0  0  0  0  0  0  0  0
    2.1492    6.8486    5.5464 C   0  0  0  0  0  0  0  0  0  0  0  0
    2.9725    6.1740    4.6719 C   0  0  0  0  0  0  0  0  0  0  0  0
    3.2871    4.8711    4.9513 C   0  0  0  0  0  0  0  0  0  0  0  0
    2.7610    4.2901    6.1045 C   0  0  0  0  0  0  0  0  0  0  0  0
  1  2  1  0
  2  3  2  0
  2  4  1  0
  4  5  1  0
  5  6  1  0
  6  7  1  0
  7  8  2  0
  8  9  1  0
  9 10  1  0
 10 11  2  0
 11 12  1  0
 12 13  2  0
 13 14  1  0
 14 15  2  0
 13 16  1  0
 16 17  1  0
  8 18  1  0
 18 19  2  0
 19 20  1  0
 20 21  2  0
 21 22  1  0
 22 23  2  0
 11  7  1  0
 15 10  1  0
 23 18  1  0
M  END
$$$$
