
     RDKit          3D

 23 25  0  0  0  0  0  0  0  0999 V2000
   -0.9565   -0.5867    7.4288 C   0  0  0  0  0  0  0  0  0  0  0  0
   -0.1458    0.5533    6.8415 C   0  0  0  0  0  0  0  0  0  0  0  0
   -0.7151    1.2771    6.0196 O   0  0  0  0  0  0  0  0  0  0  0  0
    1.1819    0.7706    7.2155 N   0  0  0  0  0  0  0  0  0  0  0  0
    2.0127    1.8486    6.7584 C   0  0  0  0  0  0  0  0  0  0  0  0
    2.4654    2.7379    7.8891 C   0  0  0  0  0  0  0  0  0  0  0  0
    1.4617    3.6760    8.3809 C   0  0  0  0  0  0  0  0  0  0  0  0
    1.0153    4.8598    7.8559 C   0  0  0  0  0  0  0  0  0  0  0  0
    0.0836    5.3370    8.7393 N   0  0  0  0  0  0  0  0  0  0  0  0
   -0.0749    4.5266    9.7737 C   0  0  0  0  0  0  0  0  0  0  0  0
    0.7673    3.4836    9.5821 C   0  0  0  0  0  0  0  0  0  0  0  0
    0.8398    2.4510   10.5020 C   0  0  0  0  0  0  0  0  0  0  0  0
    0.0545    2.4388   11.6584 C   0  0  0  0  0  0  0  0  0  0  0  0
   -0.7945    3.5021   11.8397 C   0  0  0  0  0  0  0  0  0  0  0  0
   -0.8524    4.5136   10.9195 C   0  0  0  0  0  0  0  0  0  0  0  0
    0.1780    1.3779   12.5320 O   0  0  0  0  0  0  0  0  0  0  0  0
    0.0133    0.0375   12.1528 C   0  0  0  0  0  0  0  0  0  0  0  0
    1.3889    5.5665    6.6419 C   0  0  0  0  0  0  0  0  0  0  0  0
    2.2863    4.9386    5.7703 C   0  0  0  0  0  0  0  0  0  0  0  0
    2.6936    5.5578    4.6076 C   0  0  0  0  0  0  0  0  0  0  0  0
    2.2408    6.8099    4.2543 C   0  0  0  0  0  0  0  0  0  0  0  0
    1.3625    7.4425    5.0927 C   0  0  0  0  0  0  0  0  0  0  0  0
    0.9687    6.7916    6.2613 C   0  0  0  0  0  0  0  0  0  0  0  0
  1  2  1  0
  2  3  2  0
  2  4  1  0
  4  5  1  0
  5  6  1  0
  6  7  1  0
  7  8  2  0
  8  9  1  0
  9 10  1  0
 10 11  2  0
 11 12  1  0
 12 13  2  0
 13 14  1  0
 14 15  2  0
 13 16  1  0
 16 17  1  0
  8 18  1  0
 18 19  2  0
 19 20  1  0
 20 21  2  0
 21 22  1  0
 22 23  2  0
 11  7  1  0
 15 10  1  0
 23 18  1  0
M  END
$$$$
