
     RDKit          3D

 23 25  0  0  0  0  0  0  0  0999 V2000
   -0.0351    7.6426    9.0928 C   0  0  0  0  0  0  0  0  0  0  0  0
    0.1081    6.4244    9.9858 C   0  0  0  0  0  0  0  0  0  0  0  0
    0.6710    6.5917   11.0714 O   0  0  0  0  0  0  0  0  0  0  0  0
   -0.3755    5.1742    9.5946 N   0  0  0  0  0  0  0  0  0  0  0  0
   -0.1059    3.9296   10.2576 C   0  0  0  0  0  0  0  0  0  0  0  0
    1.2816    3.4169    9.9644 C   0  0  0  0  0  0  0  0  0  0  0  0
    1.3648    2.4284    8.8941 C   0  0  0  0  0  0  0  0  0  0  0  0
    1.6067    2.5834    7.5548 C   0  0  0  0  0  0  0  0  0  0  0  0
    1.5506    1.3265    7.0132 N   0  0  0  0  0  0  0  0  0  0  0  0
    1.2907    0.4067    7.9288 C   0  0  0  0  0  0  0  0  0  0  0  0
    1.1695    1.0582    9.1097 C   0  0  0  0  0  0  0  0  0  0  0  0
    0.8935    0.3667   10.2774 C   0  0  0  0  0  0  0  0  0  0  0  0
    0.7292   -1.0215   10.2895 C   0  0  0  0  0  0  0  0  0  0  0  0
    0.8549   -1.6689    9.0855 C   0  0  0  0  0  0  0  0  0  0  0  0
    1.1279   -0.9684    7.9418 C   0  0  0  0  0  0  0  0  0  0  0  0
    0.4557   -1.6459   11.4891 O   0  0  0  0  0  0  0  0  0  0  0  0
    0.2058   -3.0210   11.6086 C   0  0  0  0  0  0  0  0  0  0  0  0
    1.8622    3.7751    6.7628 C   0  0  0  0  0  0  0  0  0  0  0  0
    2.2971    3.6020    5.4436 C   0  0  0  0  0  0  0  0  0  0  0  0
    2.5708    4.6889    4.6407 C   0  0  0  0  0  0  0  0  0  0  0  0
    2.4303    5.9817    5.0952 C   0  0  0  0  0  0  0  0  0  0  0  0
    2.0062    6.1741    6.3828 C   0  0  0  0  0  0  0  0  0  0  0  0
    1.7373    5.0557    7.1710 C   0  0  0  0  0  0  0  0  0  0  0  0
  1  2  1  0
  2  3  2  0
  2  4  1  0
  4  5  1  0
  5  6  1  0
  6  7  1  0
  7  8  2  0
  8  9  1  0
  9 10  1  0
 10 11  2  0
 11 12  1  0
 12 13  2  0
 13 14  1  0
 14 15  2  0
 13 16  1  0
 16 17  1  0
  8 18  1  0
 18 19  2  0
 19 20  1  0
 20 21  2  0
 21 22  1  0
 22 23  2  0
 11  7  1  0
 15 10  1  0
 23 18  1  0
M  END
$$$$
