
     RDKit          3D

 23 25  0  0  0  0  0  0  0  0999 V2000
    1.3311   -2.4421    9.2512 C   0  0  0  0  0  0  0  0  0  0  0  0
    1.5810   -0.9597    9.4557 C   0  0  0  0  0  0  0  0  0  0  0  0
    1.5926   -0.5514   10.6205 O   0  0  0  0  0  0  0  0  0  0  0  0
    1.7877   -0.1004    8.3746 N   0  0  0  0  0  0  0  0  0  0  0  0
    1.8922    1.3294    8.4522 C   0  0  0  0  0  0  0  0  0  0  0  0
    0.5447    2.0034    8.3881 C   0  0  0  0  0  0  0  0  0  0  0  0
    0.4446    3.2616    9.1206 C   0  0  0  0  0  0  0  0  0  0  0  0
    0.6596    4.5508    8.7107 C   0  0  0  0  0  0  0  0  0  0  0  0
    0.4448    5.3375    9.8113 N   0  0  0  0  0  0  0  0  0  0  0  0
    0.1114    4.6199   10.8723 C   0  0  0  0  0  0  0  0  0  0  0  0
    0.1018    3.3247   10.4773 C   0  0  0  0  0  0  0  0  0  0  0  0
   -0.2127    2.3125   11.3686 C   0  0  0  0  0  0  0  0  0  0  0  0
   -0.5315    2.5797   12.7032 C   0  0  0  0  0  0  0  0  0  0  0  0
   -0.5180    3.8968   13.0897 C   0  0  0  0  0  0  0  0  0  0  0  0
   -0.2046    4.8835   12.1944 C   0  0  0  0  0  0  0  0  0  0  0  0
   -0.8349    1.5226   13.5364 O   0  0  0  0  0  0  0  0  0  0  0  0
   -1.6276    1.6447   14.6872 C   0  0  0  0  0  0  0  0  0  0  0  0
    1.0527    5.0885    7.4188 C   0  0  0  0  0  0  0  0  0  0  0  0
    1.5102    4.1891    6.4486 C   0  0  0  0  0  0  0  0  0  0  0  0
    1.9118    4.6325    5.2064 C   0  0  0  0  0  0  0  0  0  0  0  0
    1.8814    5.9671    4.8666 C   0  0  0  0  0  0  0  0  0  0  0  0
    1.4374    6.8643    5.8007 C   0  0  0  0  0  0  0  0  0  0  0  0
    1.0381    6.3864    7.0482 C   0  0  0  0  0  0  0  0  0  0  0  0
  1  2  1  0
  2  3  2  0
  2  4  1  0
  4  5  1  0
  5  6  1  0
  6  7  1  0
  7  8  2  0
  8  9  1  0
  9 10  1  0
 10 11  2  0
 11 12  1  0
 12 13  2  0
 13 14  1  0
 14 15  2  0
 13 16  1  0
 16 17  1  0
  8 18  1  0
 18 19  2  0
 19 20  1  0
 20 21  2  0
 21 22  1  0
 22 23  2  0
 11  7  1  0
 15 10  1  0
 23 18  1  0
M  END
$$$$
