
     RDKit          3D

 23 25  0  0  0  0  0  0  0  0999 V2000
    3.1371    2.3916    4.2207 C   0  0  0  0  0  0  0  0  0  0  0  0
    3.5019    1.9847    5.6360 C   0  0  0  0  0  0  0  0  0  0  0  0
    4.6954    1.7669    5.8637 O   0  0  0  0  0  0  0  0  0  0  0  0
    2.5306    1.8633    6.6318 N   0  0  0  0  0  0  0  0  0  0  0  0
    2.7857    1.7878    8.0427 C   0  0  0  0  0  0  0  0  0  0  0  0
    2.7146    3.1395    8.7075 C   0  0  0  0  0  0  0  0  0  0  0  0
    1.3677    3.6115    9.0118 C   0  0  0  0  0  0  0  0  0  0  0  0
    0.6258    4.6142    8.4458 C   0  0  0  0  0  0  0  0  0  0  0  0
   -0.5593    4.6405    9.1322 N   0  0  0  0  0  0  0  0  0  0  0  0
   -0.5981    3.7209   10.0834 C   0  0  0  0  0  0  0  0  0  0  0  0
    0.5847    3.0632   10.0356 C   0  0  0  0  0  0  0  0  0  0  0  0
    0.8585    2.0292   10.9153 C   0  0  0  0  0  0  0  0  0  0  0  0
   -0.0648    1.6217   11.8826 C   0  0  0  0  0  0  0  0  0  0  0  0
   -1.2593    2.2971   11.9195 C   0  0  0  0  0  0  0  0  0  0  0  0
   -1.5119    3.3165   11.0419 C   0  0  0  0  0  0  0  0  0  0  0  0
    0.2742    0.5842   12.7266 O   0  0  0  0  0  0  0  0  0  0  0  0
   -0.2661    0.4206   14.0107 C   0  0  0  0  0  0  0  0  0  0  0  0
    0.9313    5.5312    7.3602 C   0  0  0  0  0  0  0  0  0  0  0  0
    2.2428    5.5511    6.8713 C   0  0  0  0  0  0  0  0  0  0  0  0
    2.6049    6.4060    5.8520 C   0  0  0  0  0  0  0  0  0  0  0  0
    1.7019    7.2709    5.2740 C   0  0  0  0  0  0  0  0  0  0  0  0
    0.4134    7.2682    5.7370 C   0  0  0  0  0  0  0  0  0  0  0  0
    0.0768    6.3927    6.7688 C   0  0  0  0  0  0  0  0  0  0  0  0
  1  2  1  0
  2  3  2  0
  2  4  1  0
  4  5  1  0
  5  6  1  0
  6  7  1  0
  7  8  2  0
  8  9  1  0
  9 10  1  0
 10 11  2  0
 11 12  1  0
 12 13  2  0
 13 14  1  0
 14 15  2  0
 13 16  1  0
 16 17  1  0
  8 18  1  0
 18 19  2  0
 19 20  1  0
 20 21  2  0
 21 22  1  0
 22 23  2  0
 11  7  1  0
 15 10  1  0
 23 18  1  0
M  END
$$$$
