
     RDKit          3D

 23 25  0  0  0  0  0  0  0  0999 V2000
   -0.9645   -0.7926    7.1660 C   0  0  0  0  0  0  0  0  0  0  0  0
   -0.1636    0.4110    6.7059 C   0  0  0  0  0  0  0  0  0  0  0  0
   -0.7626    1.2562    6.0348 O   0  0  0  0  0  0  0  0  0  0  0  0
    1.1877    0.5526    7.0283 N   0  0  0  0  0  0  0  0  0  0  0  0
    2.0092    1.6848    6.7052 C   0  0  0  0  0  0  0  0  0  0  0  0
    2.5766    2.3465    7.9358 C   0  0  0  0  0  0  0  0  0  0  0  0
    1.6489    3.2093    8.6602 C   0  0  0  0  0  0  0  0  0  0  0  0
    1.1754    4.4591    8.3603 C   0  0  0  0  0  0  0  0  0  0  0  0
    0.3503    4.8087    9.3963 N   0  0  0  0  0  0  0  0  0  0  0  0
    0.2829    3.8581   10.3148 C   0  0  0  0  0  0  0  0  0  0  0  0
    1.0788    2.8490    9.8879 C   0  0  0  0  0  0  0  0  0  0  0  0
    1.2247    1.6937   10.6374 C   0  0  0  0  0  0  0  0  0  0  0  0
    0.5633    1.5187   11.8564 C   0  0  0  0  0  0  0  0  0  0  0  0
   -0.2401    2.5493   12.2768 C   0  0  0  0  0  0  0  0  0  0  0  0
   -0.3718    3.6837   11.5224 C   0  0  0  0  0  0  0  0  0  0  0  0
    0.7545    0.3419   12.5510 O   0  0  0  0  0  0  0  0  0  0  0  0
    0.5788    0.2222   13.9375 C   0  0  0  0  0  0  0  0  0  0  0  0
    1.4359    5.3320    7.2276 C   0  0  0  0  0  0  0  0  0  0  0  0
    1.9130    4.7475    6.0486 C   0  0  0  0  0  0  0  0  0  0  0  0
    2.1937    5.5183    4.9403 C   0  0  0  0  0  0  0  0  0  0  0  0
    2.0194    6.8847    4.9427 C   0  0  0  0  0  0  0  0  0  0  0  0
    1.5537    7.4773    6.0858 C   0  0  0  0  0  0  0  0  0  0  0  0
    1.2787    6.6722    7.1905 C   0  0  0  0  0  0  0  0  0  0  0  0
  1  2  1  0
  2  3  2  0
  2  4  1  0
  4  5  1  0
  5  6  1  0
  6  7  1  0
  7  8  2  0
  8  9  1  0
  9 10  1  0
 10 11  2  0
 11 12  1  0
 12 13  2  0
 13 14  1  0
 14 15  2  0
 13 16  1  0
 16 17  1  0
  8 18  1  0
 18 19  2  0
 19 20  1  0
 20 21  2  0
 21 22  1  0
 22 23  2  0
 11  7  1  0
 15 10  1  0
 23 18  1  0
M  END
$$$$
