
     RDKit          3D

 23 25  0  0  0  0  0  0  0  0999 V2000
   -0.8227   -0.9320    7.2078 C   0  0  0  0  0  0  0  0  0  0  0  0
   -0.0592    0.2918    6.7374 C   0  0  0  0  0  0  0  0  0  0  0  0
   -0.7075    1.1612    6.1479 O   0  0  0  0  0  0  0  0  0  0  0  0
    1.3125    0.4250    6.9625 N   0  0  0  0  0  0  0  0  0  0  0  0
    2.1140    1.5565    6.5902 C   0  0  0  0  0  0  0  0  0  0  0  0
    2.5453    2.3674    7.7862 C   0  0  0  0  0  0  0  0  0  0  0  0
    1.5387    3.2855    8.3093 C   0  0  0  0  0  0  0  0  0  0  0  0
    1.0780    4.4776    7.8165 C   0  0  0  0  0  0  0  0  0  0  0  0
    0.1509    4.9263    8.7194 N   0  0  0  0  0  0  0  0  0  0  0  0
    0.0086    4.0906    9.7359 C   0  0  0  0  0  0  0  0  0  0  0  0
    0.8572    3.0593    9.5120 C   0  0  0  0  0  0  0  0  0  0  0  0
    0.9467    2.0059   10.4066 C   0  0  0  0  0  0  0  0  0  0  0  0
    0.1725    1.9601   11.5696 C   0  0  0  0  0  0  0  0  0  0  0  0
   -0.6833    3.0119   11.7837 C   0  0  0  0  0  0  0  0  0  0  0  0
   -0.7579    4.0442   10.8882 C   0  0  0  0  0  0  0  0  0  0  0  0
    0.3126    0.8802   12.4168 O   0  0  0  0  0  0  0  0  0  0  0  0
   -0.1730    0.8583   13.7326 C   0  0  0  0  0  0  0  0  0  0  0  0
    1.4345    5.2157    6.6161 C   0  0  0  0  0  0  0  0  0  0  0  0
    0.9232    6.5104    6.4693 C   0  0  0  0  0  0  0  0  0  0  0  0
    1.2102    7.2615    5.3492 C   0  0  0  0  0  0  0  0  0  0  0  0
    2.0051    6.7771    4.3338 C   0  0  0  0  0  0  0  0  0  0  0  0
    2.5157    5.5126    4.4567 C   0  0  0  0  0  0  0  0  0  0  0  0
    2.2080    4.7770    5.6005 C   0  0  0  0  0  0  0  0  0  0  0  0
  1  2  1  0
  2  3  2  0
  2  4  1  0
  4  5  1  0
  5  6  1  0
  6  7  1  0
  7  8  2  0
  8  9  1  0
  9 10  1  0
 10 11  2  0
 11 12  1  0
 12 13  2  0
 13 14  1  0
 14 15  2  0
 13 16  1  0
 16 17  1  0
  8 18  1  0
 18 19  2  0
 19 20  1  0
 20 21  2  0
 21 22  1  0
 22 23  2  0
 11  7  1  0
 15 10  1  0
 23 18  1  0
M  END
$$$$
