
     RDKit          3D

 23 25  0  0  0  0  0  0  0  0999 V2000
    0.4370    3.4483    3.8560 C   0  0  0  0  0  0  0  0  0  0  0  0
    1.1349    2.4612    4.7727 C   0  0  0  0  0  0  0  0  0  0  0  0
    0.4469    1.5466    5.2349 O   0  0  0  0  0  0  0  0  0  0  0  0
    2.4921    2.5847    5.0771 N   0  0  0  0  0  0  0  0  0  0  0  0
    3.2306    1.7296    5.9629 C   0  0  0  0  0  0  0  0  0  0  0  0
    3.5616    2.4101    7.2673 C   0  0  0  0  0  0  0  0  0  0  0  0
    2.4285    2.6205    8.1626 C   0  0  0  0  0  0  0  0  0  0  0  0
    1.6684    3.7370    8.3907 C   0  0  0  0  0  0  0  0  0  0  0  0
    0.7531    3.3817    9.3458 N   0  0  0  0  0  0  0  0  0  0  0  0
    0.8975    2.1209    9.7216 C   0  0  0  0  0  0  0  0  0  0  0  0
    1.9307    1.6183    9.0050 C   0  0  0  0  0  0  0  0  0  0  0  0
    2.3372    0.3047    9.1701 C   0  0  0  0  0  0  0  0  0  0  0  0
    1.7053   -0.5531   10.0751 C   0  0  0  0  0  0  0  0  0  0  0  0
    0.6596   -0.0304   10.7946 C   0  0  0  0  0  0  0  0  0  0  0  0
    0.2722    1.2703   10.6178 C   0  0  0  0  0  0  0  0  0  0  0  0
    2.1625   -1.8500   10.1884 O   0  0  0  0  0  0  0  0  0  0  0  0
    1.7049   -2.7517   11.1606 C   0  0  0  0  0  0  0  0  0  0  0  0
    1.7365    5.0712    7.8180 C   0  0  0  0  0  0  0  0  0  0  0  0
    2.9068    5.4324    7.1403 C   0  0  0  0  0  0  0  0  0  0  0  0
    3.0439    6.6867    6.5845 C   0  0  0  0  0  0  0  0  0  0  0  0
    2.0458    7.6322    6.6699 C   0  0  0  0  0  0  0  0  0  0  0  0
    0.8924    7.3001    7.3287 C   0  0  0  0  0  0  0  0  0  0  0  0
    0.7827    6.0243    7.8805 C   0  0  0  0  0  0  0  0  0  0  0  0
  1  2  1  0
  2  3  2  0
  2  4  1  0
  4  5  1  0
  5  6  1  0
  6  7  1  0
  7  8  2  0
  8  9  1  0
  9 10  1  0
 10 11  2  0
 11 12  1  0
 12 13  2  0
 13 14  1  0
 14 15  2  0
 13 16  1  0
 16 17  1  0
  8 18  1  0
 18 19  2  0
 19 20  1  0
 20 21  2  0
 21 22  1  0
 22 23  2  0
 11  7  1  0
 15 10  1  0
 23 18  1  0
M  END
$$$$
