
     RDKit          3D

 23 25  0  0  0  0  0  0  0  0999 V2000
    0.9651   -2.2036    9.5370 C   0  0  0  0  0  0  0  0  0  0  0  0
    0.7664   -1.0134    8.6172 C   0  0  0  0  0  0  0  0  0  0  0  0
   -0.3971   -0.6593    8.4066 O   0  0  0  0  0  0  0  0  0  0  0  0
    1.8513   -0.3521    8.0379 N   0  0  0  0  0  0  0  0  0  0  0  0
    1.7891    0.8986    7.3358 C   0  0  0  0  0  0  0  0  0  0  0  0
    2.4283    2.0211    8.1139 C   0  0  0  0  0  0  0  0  0  0  0  0
    1.5031    3.0266    8.6264 C   0  0  0  0  0  0  0  0  0  0  0  0
    1.1611    4.2573    8.1317 C   0  0  0  0  0  0  0  0  0  0  0  0
    0.2663    4.7870    9.0234 N   0  0  0  0  0  0  0  0  0  0  0  0
    0.0333    3.9654   10.0345 C   0  0  0  0  0  0  0  0  0  0  0  0
    0.7866    2.8610    9.8185 C   0  0  0  0  0  0  0  0  0  0  0  0
    0.7660    1.8016   10.7102 C   0  0  0  0  0  0  0  0  0  0  0  0
   -0.0256    1.8242   11.8621 C   0  0  0  0  0  0  0  0  0  0  0  0
   -0.7840    2.9497   12.0683 C   0  0  0  0  0  0  0  0  0  0  0  0
   -0.7505    3.9868   11.1759 C   0  0  0  0  0  0  0  0  0  0  0  0
    0.0025    0.7338   12.7070 O   0  0  0  0  0  0  0  0  0  0  0  0
   -0.2652    0.8105   14.0818 C   0  0  0  0  0  0  0  0  0  0  0  0
    1.6010    4.9625    6.9393 C   0  0  0  0  0  0  0  0  0  0  0  0
    1.0938    6.2480    6.7161 C   0  0  0  0  0  0  0  0  0  0  0  0
    1.4585    6.9679    5.5982 C   0  0  0  0  0  0  0  0  0  0  0  0
    2.3296    6.4605    4.6595 C   0  0  0  0  0  0  0  0  0  0  0  0
    2.8376    5.2046    4.8579 C   0  0  0  0  0  0  0  0  0  0  0  0
    2.4505    4.5005    5.9975 C   0  0  0  0  0  0  0  0  0  0  0  0
  1  2  1  0
  2  3  2  0
  2  4  1  0
  4  5  1  0
  5  6  1  0
  6  7  1  0
  7  8  2  0
  8  9  1  0
  9 10  1  0
 10 11  2  0
 11 12  1  0
 12 13  2  0
 13 14  1  0
 14 15  2  0
 13 16  1  0
 16 17  1  0
  8 18  1  0
 18 19  2  0
 19 20  1  0
 20 21  2  0
 21 22  1  0
 22 23  2  0
 11  7  1  0
 15 10  1  0
 23 18  1  0
M  END
$$$$
