
     RDKit          3D

 23 25  0  0  0  0  0  0  0  0999 V2000
    6.4940    5.1107    6.1393 C   0  0  0  0  0  0  0  0  0  0  0  0
    5.3664    4.1085    5.9788 C   0  0  0  0  0  0  0  0  0  0  0  0
    4.5871    4.2912    5.0392 O   0  0  0  0  0  0  0  0  0  0  0  0
    5.2199    3.0310    6.8550 N   0  0  0  0  0  0  0  0  0  0  0  0
    4.0632    2.1865    6.9543 C   0  0  0  0  0  0  0  0  0  0  0  0
    3.0273    2.7475    7.8958 C   0  0  0  0  0  0  0  0  0  0  0  0
    1.6518    2.3503    7.6132 C   0  0  0  0  0  0  0  0  0  0  0  0
    0.6443    3.0215    6.9725 C   0  0  0  0  0  0  0  0  0  0  0  0
   -0.4444    2.1910    7.0077 N   0  0  0  0  0  0  0  0  0  0  0  0
   -0.1757    1.0525    7.6270 C   0  0  0  0  0  0  0  0  0  0  0  0
    1.1197    1.1188    8.0160 C   0  0  0  0  0  0  0  0  0  0  0  0
    1.7109    0.0691    8.6990 C   0  0  0  0  0  0  0  0  0  0  0  0
    1.0039   -1.0949    9.0145 C   0  0  0  0  0  0  0  0  0  0  0  0
   -0.3080   -1.1485    8.6140 C   0  0  0  0  0  0  0  0  0  0  0  0
   -0.8751   -0.1010    7.9399 C   0  0  0  0  0  0  0  0  0  0  0  0
    1.6557   -2.1015    9.6969 O   0  0  0  0  0  0  0  0  0  0  0  0
    0.9961   -3.1812   10.3026 C   0  0  0  0  0  0  0  0  0  0  0  0
    0.6131    4.3408    6.3632 C   0  0  0  0  0  0  0  0  0  0  0  0
   -0.6336    4.8630    5.9991 C   0  0  0  0  0  0  0  0  0  0  0  0
   -0.7348    6.1028    5.4045 C   0  0  0  0  0  0  0  0  0  0  0  0
    0.3748    6.8764    5.1442 C   0  0  0  0  0  0  0  0  0  0  0  0
    1.6045    6.3849    5.4920 C   0  0  0  0  0  0  0  0  0  0  0  0
    1.6755    5.1280    6.0916 C   0  0  0  0  0  0  0  0  0  0  0  0
  1  2  1  0
  2  3  2  0
  2  4  1  0
  4  5  1  0
  5  6  1  0
  6  7  1  0
  7  8  2  0
  8  9  1  0
  9 10  1  0
 10 11  2  0
 11 12  1  0
 12 13  2  0
 13 14  1  0
 14 15  2  0
 13 16  1  0
 16 17  1  0
  8 18  1  0
 18 19  2  0
 19 20  1  0
 20 21  2  0
 21 22  1  0
 22 23  2  0
 11  7  1  0
 15 10  1  0
 23 18  1  0
M  END
$$$$
