
     RDKit          3D

 23 25  0  0  0  0  0  0  0  0999 V2000
    6.1945    3.6137    7.4018 C   0  0  0  0  0  0  0  0  0  0  0  0
    4.9042    3.7852    6.6222 C   0  0  0  0  0  0  0  0  0  0  0  0
    4.6494    4.9196    6.2079 O   0  0  0  0  0  0  0  0  0  0  0  0
    4.0476    2.7079    6.3864 N   0  0  0  0  0  0  0  0  0  0  0  0
    2.8074    2.7691    5.6657 C   0  0  0  0  0  0  0  0  0  0  0  0
    1.6559    2.2133    6.4652 C   0  0  0  0  0  0  0  0  0  0  0  0
    1.2276    3.0366    7.5914 C   0  0  0  0  0  0  0  0  0  0  0  0
    0.9385    4.3738    7.6585 C   0  0  0  0  0  0  0  0  0  0  0  0
    0.6098    4.6238    8.9645 N   0  0  0  0  0  0  0  0  0  0  0  0
    0.6764    3.5303    9.7072 C   0  0  0  0  0  0  0  0  0  0  0  0
    1.0576    2.5248    8.8841 C   0  0  0  0  0  0  0  0  0  0  0  0
    1.2206    1.2364    9.3649 C   0  0  0  0  0  0  0  0  0  0  0  0
    1.0008    0.9187   10.7084 C   0  0  0  0  0  0  0  0  0  0  0  0
    0.6148    1.9475   11.5312 C   0  0  0  0  0  0  0  0  0  0  0  0
    0.4589    3.2146   11.0379 C   0  0  0  0  0  0  0  0  0  0  0  0
    1.1820   -0.3860   11.1190 O   0  0  0  0  0  0  0  0  0  0  0  0
    0.4040   -1.0025   12.1101 C   0  0  0  0  0  0  0  0  0  0  0  0
    0.9595    5.4072    6.6365 C   0  0  0  0  0  0  0  0  0  0  0  0
   -0.0643    6.3618    6.6516 C   0  0  0  0  0  0  0  0  0  0  0  0
   -0.1130    7.3618    5.7036 C   0  0  0  0  0  0  0  0  0  0  0  0
    0.8337    7.4661    4.7084 C   0  0  0  0  0  0  0  0  0  0  0  0
    1.8440    6.5426    4.6748 C   0  0  0  0  0  0  0  0  0  0  0  0
    1.8670    5.5429    5.6465 C   0  0  0  0  0  0  0  0  0  0  0  0
  1  2  1  0
  2  3  2  0
  2  4  1  0
  4  5  1  0
  5  6  1  0
  6  7  1  0
  7  8  2  0
  8  9  1  0
  9 10  1  0
 10 11  2  0
 11 12  1  0
 12 13  2  0
 13 14  1  0
 14 15  2  0
 13 16  1  0
 16 17  1  0
  8 18  1  0
 18 19  2  0
 19 20  1  0
 20 21  2  0
 21 22  1  0
 22 23  2  0
 11  7  1  0
 15 10  1  0
 23 18  1  0
M  END
$$$$
