
     RDKit          3D

 23 25  0  0  0  0  0  0  0  0999 V2000
    1.4647    5.0208    3.9834 C   0  0  0  0  0  0  0  0  0  0  0  0
    2.5022    5.2889    5.0574 C   0  0  0  0  0  0  0  0  0  0  0  0
    2.8139    6.4675    5.2500 O   0  0  0  0  0  0  0  0  0  0  0  0
    3.0756    4.2485    5.7915 N   0  0  0  0  0  0  0  0  0  0  0  0
    3.6533    4.3694    7.1002 C   0  0  0  0  0  0  0  0  0  0  0  0
    3.0531    3.3930    8.0803 C   0  0  0  0  0  0  0  0  0  0  0  0
    1.6770    3.6765    8.4750 C   0  0  0  0  0  0  0  0  0  0  0  0
    0.6294    2.8303    8.7251 C   0  0  0  0  0  0  0  0  0  0  0  0
   -0.4374    3.6317    9.0351 N   0  0  0  0  0  0  0  0  0  0  0  0
   -0.1177    4.9154    8.9932 C   0  0  0  0  0  0  0  0  0  0  0  0
    1.1902    4.9785    8.6481 C   0  0  0  0  0  0  0  0  0  0  0  0
    1.8324    6.1985    8.5178 C   0  0  0  0  0  0  0  0  0  0  0  0
    1.1660    7.4080    8.7347 C   0  0  0  0  0  0  0  0  0  0  0  0
   -0.1592    7.3291    9.0840 C   0  0  0  0  0  0  0  0  0  0  0  0
   -0.7770    6.1141    9.2079 C   0  0  0  0  0  0  0  0  0  0  0  0
    1.8677    8.5869    8.5872 O   0  0  0  0  0  0  0  0  0  0  0  0
    3.2246    8.6432    8.2363 C   0  0  0  0  0  0  0  0  0  0  0  0
    0.5432    1.3799    8.6837 C   0  0  0  0  0  0  0  0  0  0  0  0
   -0.7312    0.8008    8.6870 C   0  0  0  0  0  0  0  0  0  0  0  0
   -0.8856   -0.5691    8.6626 C   0  0  0  0  0  0  0  0  0  0  0  0
    0.1959   -1.4218    8.6341 C   0  0  0  0  0  0  0  0  0  0  0  0
    1.4518   -0.8766    8.6305 C   0  0  0  0  0  0  0  0  0  0  0  0
    1.5767    0.5120    8.6558 C   0  0  0  0  0  0  0  0  0  0  0  0
  1  2  1  0
  2  3  2  0
  2  4  1  0
  4  5  1  0
  5  6  1  0
  6  7  1  0
  7  8  2  0
  8  9  1  0
  9 10  1  0
 10 11  2  0
 11 12  1  0
 12 13  2  0
 13 14  1  0
 14 15  2  0
 13 16  1  0
 16 17  1  0
  8 18  1  0
 18 19  2  0
 19 20  1  0
 20 21  2  0
 21 22  1  0
 22 23  2  0
 11  7  1  0
 15 10  1  0
 23 18  1  0
M  END
$$$$
