
     RDKit          3D

 23 25  0  0  0  0  0  0  0  0999 V2000
    4.7776    4.8838    5.3259 C   0  0  0  0  0  0  0  0  0  0  0  0
    3.9127    3.8550    6.0297 C   0  0  0  0  0  0  0  0  0  0  0  0
    3.0241    3.3211    5.3598 O   0  0  0  0  0  0  0  0  0  0  0  0
    4.1153    3.5299    7.3726 N   0  0  0  0  0  0  0  0  0  0  0  0
    3.3612    2.5643    8.1211 C   0  0  0  0  0  0  0  0  0  0  0  0
    2.3948    3.2146    9.0789 C   0  0  0  0  0  0  0  0  0  0  0  0
    1.1102    3.5959    8.5010 C   0  0  0  0  0  0  0  0  0  0  0  0
    0.0679    2.8250    8.0589 C   0  0  0  0  0  0  0  0  0  0  0  0
   -0.8779    3.6998    7.5938 N   0  0  0  0  0  0  0  0  0  0  0  0
   -0.4889    4.9586    7.7197 C   0  0  0  0  0  0  0  0  0  0  0  0
    0.7433    4.9297    8.2807 C   0  0  0  0  0  0  0  0  0  0  0  0
    1.4310    6.1023    8.5452 C   0  0  0  0  0  0  0  0  0  0  0  0
    0.8896    7.3563    8.2480 C   0  0  0  0  0  0  0  0  0  0  0  0
   -0.3600    7.3706    7.6798 C   0  0  0  0  0  0  0  0  0  0  0  0
   -1.0244    6.2014    7.4258 C   0  0  0  0  0  0  0  0  0  0  0  0
    1.6303    8.4835    8.5384 O   0  0  0  0  0  0  0  0  0  0  0  0
    1.2881    9.7710    8.0993 C   0  0  0  0  0  0  0  0  0  0  0  0
   -0.1035    1.3821    8.0225 C   0  0  0  0  0  0  0  0  0  0  0  0
    0.8819    0.5916    8.6256 C   0  0  0  0  0  0  0  0  0  0  0  0
    0.7890   -0.7840    8.6161 C   0  0  0  0  0  0  0  0  0  0  0  0
   -0.2667   -1.4368    8.0188 C   0  0  0  0  0  0  0  0  0  0  0  0
   -1.2419   -0.6830    7.4226 C   0  0  0  0  0  0  0  0  0  0  0  0
   -1.1209    0.7059    7.4481 C   0  0  0  0  0  0  0  0  0  0  0  0
  1  2  1  0
  2  3  2  0
  2  4  1  0
  4  5  1  0
  5  6  1  0
  6  7  1  0
  7  8  2  0
  8  9  1  0
  9 10  1  0
 10 11  2  0
 11 12  1  0
 12 13  2  0
 13 14  1  0
 14 15  2  0
 13 16  1  0
 16 17  1  0
  8 18  1  0
 18 19  2  0
 19 20  1  0
 20 21  2  0
 21 22  1  0
 22 23  2  0
 11  7  1  0
 15 10  1  0
 23 18  1  0
M  END
$$$$
