
     RDKit          3D

 23 25  0  0  0  0  0  0  0  0999 V2000
    1.3710    2.9105    2.9589 C   0  0  0  0  0  0  0  0  0  0  0  0
    0.9266    1.8808    3.9806 C   0  0  0  0  0  0  0  0  0  0  0  0
   -0.0164    1.1505    3.6628 O   0  0  0  0  0  0  0  0  0  0  0  0
    1.5571    1.7674    5.2214 N   0  0  0  0  0  0  0  0  0  0  0  0
    1.1610    0.8844    6.2820 C   0  0  0  0  0  0  0  0  0  0  0  0
    0.0311    1.4521    7.1037 C   0  0  0  0  0  0  0  0  0  0  0  0
    0.4321    2.0892    8.3539 C   0  0  0  0  0  0  0  0  0  0  0  0
    0.7831    3.3861    8.6205 C   0  0  0  0  0  0  0  0  0  0  0  0
    1.0889    3.4276    9.9551 N   0  0  0  0  0  0  0  0  0  0  0  0
    0.9495    2.2433   10.5295 C   0  0  0  0  0  0  0  0  0  0  0  0
    0.5420    1.3883    9.5616 C   0  0  0  0  0  0  0  0  0  0  0  0
    0.3051    0.0538    9.8464 C   0  0  0  0  0  0  0  0  0  0  0  0
    0.4744   -0.4656   11.1331 C   0  0  0  0  0  0  0  0  0  0  0  0
    0.8877    0.4123   12.1041 C   0  0  0  0  0  0  0  0  0  0  0  0
    1.1168    1.7278   11.8038 C   0  0  0  0  0  0  0  0  0  0  0  0
    0.2204   -1.8050   11.3457 O   0  0  0  0  0  0  0  0  0  0  0  0
    0.1478   -2.3882   12.6193 C   0  0  0  0  0  0  0  0  0  0  0  0
    0.8686    4.5493    7.7532 C   0  0  0  0  0  0  0  0  0  0  0  0
    1.7068    5.5985    8.1481 C   0  0  0  0  0  0  0  0  0  0  0  0
    1.8248    6.7372    7.3795 C   0  0  0  0  0  0  0  0  0  0  0  0
    1.1304    6.8928    6.2001 C   0  0  0  0  0  0  0  0  0  0  0  0
    0.3045    5.8787    5.7950 C   0  0  0  0  0  0  0  0  0  0  0  0
    0.2055    4.7395    6.5929 C   0  0  0  0  0  0  0  0  0  0  0  0
  1  2  1  0
  2  3  2  0
  2  4  1  0
  4  5  1  0
  5  6  1  0
  6  7  1  0
  7  8  2  0
  8  9  1  0
  9 10  1  0
 10 11  2  0
 11 12  1  0
 12 13  2  0
 13 14  1  0
 14 15  2  0
 13 16  1  0
 16 17  1  0
  8 18  1  0
 18 19  2  0
 19 20  1  0
 20 21  2  0
 21 22  1  0
 22 23  2  0
 11  7  1  0
 15 10  1  0
 23 18  1  0
M  END
$$$$
