
     RDKit          3D

 23 25  0  0  0  0  0  0  0  0999 V2000
    0.1861   -0.0122   11.2322 C   0  0  0  0  0  0  0  0  0  0  0  0
    0.6968    0.6363    9.9593 C   0  0  0  0  0  0  0  0  0  0  0  0
    0.2786    0.1770    8.8927 O   0  0  0  0  0  0  0  0  0  0  0  0
    1.5978    1.7025    9.9964 N   0  0  0  0  0  0  0  0  0  0  0  0
    2.0926    2.4180    8.8543 C   0  0  0  0  0  0  0  0  0  0  0  0
    0.9976    3.1568    8.1266 C   0  0  0  0  0  0  0  0  0  0  0  0
    1.0239    4.6084    8.2745 C   0  0  0  0  0  0  0  0  0  0  0  0
    1.7606    5.5578    7.6173 C   0  0  0  0  0  0  0  0  0  0  0  0
    1.4047    6.7601    8.1686 N   0  0  0  0  0  0  0  0  0  0  0  0
    0.4976    6.6158    9.1216 C   0  0  0  0  0  0  0  0  0  0  0  0
    0.2384    5.2898    9.2130 C   0  0  0  0  0  0  0  0  0  0  0  0
   -0.6795    4.8070   10.1308 C   0  0  0  0  0  0  0  0  0  0  0  0
   -1.3730    5.6584   10.9957 C   0  0  0  0  0  0  0  0  0  0  0  0
   -1.1005    6.9998   10.8921 C   0  0  0  0  0  0  0  0  0  0  0  0
   -0.1900    7.4584    9.9788 C   0  0  0  0  0  0  0  0  0  0  0  0
   -2.2734    5.1091   11.8853 O   0  0  0  0  0  0  0  0  0  0  0  0
   -2.0445    5.0224   13.2665 C   0  0  0  0  0  0  0  0  0  0  0  0
    2.7505    5.4347    6.5601 C   0  0  0  0  0  0  0  0  0  0  0  0
    3.3933    4.2006    6.4074 C   0  0  0  0  0  0  0  0  0  0  0  0
    4.3523    4.0183    5.4337 C   0  0  0  0  0  0  0  0  0  0  0  0
    4.7181    5.0317    4.5755 C   0  0  0  0  0  0  0  0  0  0  0  0
    4.1021    6.2474    4.7073 C   0  0  0  0  0  0  0  0  0  0  0  0
    3.1363    6.4019    5.7011 C   0  0  0  0  0  0  0  0  0  0  0  0
  1  2  1  0
  2  3  2  0
  2  4  1  0
  4  5  1  0
  5  6  1  0
  6  7  1  0
  7  8  2  0
  8  9  1  0
  9 10  1  0
 10 11  2  0
 11 12  1  0
 12 13  2  0
 13 14  1  0
 14 15  2  0
 13 16  1  0
 16 17  1  0
  8 18  1  0
 18 19  2  0
 19 20  1  0
 20 21  2  0
 21 22  1  0
 22 23  2  0
 11  7  1  0
 15 10  1  0
 23 18  1  0
M  END
$$$$
