
     RDKit          3D

 23 25  0  0  0  0  0  0  0  0999 V2000
    3.8058   -0.3884    8.8031 C   0  0  0  0  0  0  0  0  0  0  0  0
    3.3053    0.6018    7.7683 C   0  0  0  0  0  0  0  0  0  0  0  0
    2.6798    0.1390    6.8101 O   0  0  0  0  0  0  0  0  0  0  0  0
    3.5429    1.9718    7.8970 N   0  0  0  0  0  0  0  0  0  0  0  0
    3.0644    2.9900    7.0050 C   0  0  0  0  0  0  0  0  0  0  0  0
    1.5630    3.1251    7.0478 C   0  0  0  0  0  0  0  0  0  0  0  0
    1.0599    4.1880    7.9120 C   0  0  0  0  0  0  0  0  0  0  0  0
    0.5041    4.1315    9.1626 C   0  0  0  0  0  0  0  0  0  0  0  0
    0.1902    5.4229    9.4947 N   0  0  0  0  0  0  0  0  0  0  0  0
    0.5156    6.2719    8.5329 C   0  0  0  0  0  0  0  0  0  0  0  0
    1.0590    5.5367    7.5339 C   0  0  0  0  0  0  0  0  0  0  0  0
    1.5059    6.1400    6.3702 C   0  0  0  0  0  0  0  0  0  0  0  0
    1.4170    7.5216    6.1763 C   0  0  0  0  0  0  0  0  0  0  0  0
    0.8641    8.2543    7.1970 C   0  0  0  0  0  0  0  0  0  0  0  0
    0.4280    7.6403    8.3399 C   0  0  0  0  0  0  0  0  0  0  0  0
    1.8818    8.0557    4.9921 O   0  0  0  0  0  0  0  0  0  0  0  0
    1.4807    9.3041    4.4938 C   0  0  0  0  0  0  0  0  0  0  0  0
    0.2365    3.0025   10.0380 C   0  0  0  0  0  0  0  0  0  0  0  0
    0.5786    1.7249    9.5795 C   0  0  0  0  0  0  0  0  0  0  0  0
    0.3402    0.6085   10.3528 C   0  0  0  0  0  0  0  0  0  0  0  0
   -0.2396    0.6984   11.5991 C   0  0  0  0  0  0  0  0  0  0  0  0
   -0.5824    1.9386   12.0672 C   0  0  0  0  0  0  0  0  0  0  0  0
   -0.3293    3.0490   11.2627 C   0  0  0  0  0  0  0  0  0  0  0  0
  1  2  1  0
  2  3  2  0
  2  4  1  0
  4  5  1  0
  5  6  1  0
  6  7  1  0
  7  8  2  0
  8  9  1  0
  9 10  1  0
 10 11  2  0
 11 12  1  0
 12 13  2  0
 13 14  1  0
 14 15  2  0
 13 16  1  0
 16 17  1  0
  8 18  1  0
 18 19  2  0
 19 20  1  0
 20 21  2  0
 21 22  1  0
 22 23  2  0
 11  7  1  0
 15 10  1  0
 23 18  1  0
M  END
$$$$
