
     RDKit          3D

 23 25  0  0  0  0  0  0  0  0999 V2000
    1.5871    0.0952   10.6636 C   0  0  0  0  0  0  0  0  0  0  0  0
    1.4305    0.8013    9.3299 C   0  0  0  0  0  0  0  0  0  0  0  0
    0.7626    0.2233    8.4677 O   0  0  0  0  0  0  0  0  0  0  0  0
    2.0159    2.0466    9.0925 N   0  0  0  0  0  0  0  0  0  0  0  0
    1.8660    2.8255    7.8958 C   0  0  0  0  0  0  0  0  0  0  0  0
    0.4809    3.4072    7.7645 C   0  0  0  0  0  0  0  0  0  0  0  0
    0.3325    4.7735    8.2552 C   0  0  0  0  0  0  0  0  0  0  0  0
    0.5359    5.9732    7.6262 C   0  0  0  0  0  0  0  0  0  0  0  0
    0.2699    6.9390    8.5604 N   0  0  0  0  0  0  0  0  0  0  0  0
   -0.0843    6.4153    9.7232 C   0  0  0  0  0  0  0  0  0  0  0  0
   -0.0558    5.0704    9.5678 C   0  0  0  0  0  0  0  0  0  0  0  0
   -0.3797    4.2271   10.6175 C   0  0  0  0  0  0  0  0  0  0  0  0
   -0.7473    4.7213   11.8724 C   0  0  0  0  0  0  0  0  0  0  0  0
   -0.7720    6.0863   12.0156 C   0  0  0  0  0  0  0  0  0  0  0  0
   -0.4486    6.9039   10.9667 C   0  0  0  0  0  0  0  0  0  0  0  0
   -1.0574    3.8236   12.8732 O   0  0  0  0  0  0  0  0  0  0  0  0
   -1.8039    4.1592   14.0123 C   0  0  0  0  0  0  0  0  0  0  0  0
    0.9606    6.2801    6.2704 C   0  0  0  0  0  0  0  0  0  0  0  0
    1.5615    5.2575    5.5268 C   0  0  0  0  0  0  0  0  0  0  0  0
    2.0002    5.4833    4.2393 C   0  0  0  0  0  0  0  0  0  0  0  0
    1.8687    6.7128    3.6321 C   0  0  0  0  0  0  0  0  0  0  0  0
    1.2839    7.7274    4.3415 C   0  0  0  0  0  0  0  0  0  0  0  0
    0.8503    7.4692    5.6413 C   0  0  0  0  0  0  0  0  0  0  0  0
  1  2  1  0
  2  3  2  0
  2  4  1  0
  4  5  1  0
  5  6  1  0
  6  7  1  0
  7  8  2  0
  8  9  1  0
  9 10  1  0
 10 11  2  0
 11 12  1  0
 12 13  2  0
 13 14  1  0
 14 15  2  0
 13 16  1  0
 16 17  1  0
  8 18  1  0
 18 19  2  0
 19 20  1  0
 20 21  2  0
 21 22  1  0
 22 23  2  0
 11  7  1  0
 15 10  1  0
 23 18  1  0
M  END
$$$$
