
     RDKit          3D

 23 25  0  0  0  0  0  0  0  0999 V2000
    6.1243    1.8155    8.0045 C   0  0  0  0  0  0  0  0  0  0  0  0
    5.0047    2.0698    7.0127 C   0  0  0  0  0  0  0  0  0  0  0  0
    4.8161    1.2064    6.1510 O   0  0  0  0  0  0  0  0  0  0  0  0
    4.2263    3.2274    7.0748 N   0  0  0  0  0  0  0  0  0  0  0  0
    3.1030    3.5248    6.2316 C   0  0  0  0  0  0  0  0  0  0  0  0
    1.9220    2.6325    6.5203 C   0  0  0  0  0  0  0  0  0  0  0  0
    1.1429    2.9962    7.6994 C   0  0  0  0  0  0  0  0  0  0  0  0
    0.5414    4.1787    8.0400 C   0  0  0  0  0  0  0  0  0  0  0  0
   -0.0355    3.9696    9.2647 N   0  0  0  0  0  0  0  0  0  0  0  0
    0.1696    2.7373    9.7019 C   0  0  0  0  0  0  0  0  0  0  0  0
    0.8992    2.1050    8.7523 C   0  0  0  0  0  0  0  0  0  0  0  0
    1.2831    0.7843    8.9137 C   0  0  0  0  0  0  0  0  0  0  0  0
    0.9382    0.0514   10.0529 C   0  0  0  0  0  0  0  0  0  0  0  0
    0.1986    0.7047   11.0072 C   0  0  0  0  0  0  0  0  0  0  0  0
   -0.1717    2.0104   10.8301 C   0  0  0  0  0  0  0  0  0  0  0  0
    1.3544   -1.2607   10.1479 O   0  0  0  0  0  0  0  0  0  0  0  0
    1.1020   -2.0760   11.2611 C   0  0  0  0  0  0  0  0  0  0  0  0
    0.4777    5.4526    7.3430 C   0  0  0  0  0  0  0  0  0  0  0  0
    0.8692    5.4824    5.9994 C   0  0  0  0  0  0  0  0  0  0  0  0
    0.8465    6.6596    5.2820 C   0  0  0  0  0  0  0  0  0  0  0  0
    0.4416    7.8481    5.8488 C   0  0  0  0  0  0  0  0  0  0  0  0
    0.0546    7.8418    7.1621 C   0  0  0  0  0  0  0  0  0  0  0  0
    0.0883    6.6363    7.8620 C   0  0  0  0  0  0  0  0  0  0  0  0
  1  2  1  0
  2  3  2  0
  2  4  1  0
  4  5  1  0
  5  6  1  0
  6  7  1  0
  7  8  2  0
  8  9  1  0
  9 10  1  0
 10 11  2  0
 11 12  1  0
 12 13  2  0
 13 14  1  0
 14 15  2  0
 13 16  1  0
 16 17  1  0
  8 18  1  0
 18 19  2  0
 19 20  1  0
 20 21  2  0
 21 22  1  0
 22 23  2  0
 11  7  1  0
 15 10  1  0
 23 18  1  0
M  END
$$$$
