
     RDKit          3D

 23 25  0  0  0  0  0  0  0  0999 V2000
   -0.3788   -0.3076    6.8288 C   0  0  0  0  0  0  0  0  0  0  0  0
   -0.1966    0.5222    8.0858 C   0  0  0  0  0  0  0  0  0  0  0  0
   -1.0863    0.4465    8.9380 O   0  0  0  0  0  0  0  0  0  0  0  0
    0.9262    1.3325    8.2668 N   0  0  0  0  0  0  0  0  0  0  0  0
    1.2253    2.0939    9.4467 C   0  0  0  0  0  0  0  0  0  0  0  0
    1.8287    3.4368    9.1202 C   0  0  0  0  0  0  0  0  0  0  0  0
    0.9326    4.5766    9.2858 C   0  0  0  0  0  0  0  0  0  0  0  0
    0.5707    5.5609    8.4046 C   0  0  0  0  0  0  0  0  0  0  0  0
   -0.2780    6.3885    9.0911 N   0  0  0  0  0  0  0  0  0  0  0  0
   -0.4640    5.9803   10.3363 C   0  0  0  0  0  0  0  0  0  0  0  0
    0.2745    4.8557   10.4904 C   0  0  0  0  0  0  0  0  0  0  0  0
    0.2941    4.1788   11.6983 C   0  0  0  0  0  0  0  0  0  0  0  0
   -0.4404    4.6214   12.8022 C   0  0  0  0  0  0  0  0  0  0  0  0
   -1.1845    5.7624   12.6318 C   0  0  0  0  0  0  0  0  0  0  0  0
   -1.1914    6.4179   11.4304 C   0  0  0  0  0  0  0  0  0  0  0  0
   -0.3745    3.8980   13.9753 O   0  0  0  0  0  0  0  0  0  0  0  0
   -1.0340    4.2720   15.1555 C   0  0  0  0  0  0  0  0  0  0  0  0
    0.9541    5.7922    7.0218 C   0  0  0  0  0  0  0  0  0  0  0  0
    2.0649    5.0987    6.5272 C   0  0  0  0  0  0  0  0  0  0  0  0
    2.4917    5.2807    5.2288 C   0  0  0  0  0  0  0  0  0  0  0  0
    1.8512    6.1444    4.3678 C   0  0  0  0  0  0  0  0  0  0  0  0
    0.7623    6.8332    4.8311 C   0  0  0  0  0  0  0  0  0  0  0  0
    0.3542    6.6286    6.1486 C   0  0  0  0  0  0  0  0  0  0  0  0
  1  2  1  0
  2  3  2  0
  2  4  1  0
  4  5  1  0
  5  6  1  0
  6  7  1  0
  7  8  2  0
  8  9  1  0
  9 10  1  0
 10 11  2  0
 11 12  1  0
 12 13  2  0
 13 14  1  0
 14 15  2  0
 13 16  1  0
 16 17  1  0
  8 18  1  0
 18 19  2  0
 19 20  1  0
 20 21  2  0
 21 22  1  0
 22 23  2  0
 11  7  1  0
 15 10  1  0
 23 18  1  0
M  END
$$$$
