
     RDKit          3D

 23 25  0  0  0  0  0  0  0  0999 V2000
    1.4505    3.8708   11.4272 C   0  0  0  0  0  0  0  0  0  0  0  0
    2.4680    3.5980   10.3354 C   0  0  0  0  0  0  0  0  0  0  0  0
    3.2753    2.6870   10.5401 O   0  0  0  0  0  0  0  0  0  0  0  0
    2.4873    4.3446    9.1554 N   0  0  0  0  0  0  0  0  0  0  0  0
    3.4284    4.1871    8.0827 C   0  0  0  0  0  0  0  0  0  0  0  0
    3.1135    2.9912    7.2196 C   0  0  0  0  0  0  0  0  0  0  0  0
    1.7111    2.8511    6.8411 C   0  0  0  0  0  0  0  0  0  0  0  0
    0.9037    3.6680    6.0948 C   0  0  0  0  0  0  0  0  0  0  0  0
   -0.3261    3.0652    6.0728 N   0  0  0  0  0  0  0  0  0  0  0  0
   -0.3311    1.9311    6.7552 C   0  0  0  0  0  0  0  0  0  0  0  0
    0.9204    1.7681    7.2460 C   0  0  0  0  0  0  0  0  0  0  0  0
    1.2435    0.6625    8.0149 C   0  0  0  0  0  0  0  0  0  0  0  0
    0.3014   -0.3254    8.3159 C   0  0  0  0  0  0  0  0  0  0  0  0
   -0.9630   -0.1473    7.8119 C   0  0  0  0  0  0  0  0  0  0  0  0
   -1.2636    0.9519    7.0540 C   0  0  0  0  0  0  0  0  0  0  0  0
    0.6922   -1.4004    9.0876 O   0  0  0  0  0  0  0  0  0  0  0  0
    0.0198   -2.6314    9.1002 C   0  0  0  0  0  0  0  0  0  0  0  0
    1.1757    4.9342    5.4348 C   0  0  0  0  0  0  0  0  0  0  0  0
    0.3145    5.3328    4.4058 C   0  0  0  0  0  0  0  0  0  0  0  0
    0.5218    6.5157    3.7283 C   0  0  0  0  0  0  0  0  0  0  0  0
    1.5750    7.3507    4.0300 C   0  0  0  0  0  0  0  0  0  0  0  0
    2.4299    6.9801    5.0332 C   0  0  0  0  0  0  0  0  0  0  0  0
    2.1950    5.7784    5.7003 C   0  0  0  0  0  0  0  0  0  0  0  0
  1  2  1  0
  2  3  2  0
  2  4  1  0
  4  5  1  0
  5  6  1  0
  6  7  1  0
  7  8  2  0
  8  9  1  0
  9 10  1  0
 10 11  2  0
 11 12  1  0
 12 13  2  0
 13 14  1  0
 14 15  2  0
 13 16  1  0
 16 17  1  0
  8 18  1  0
 18 19  2  0
 19 20  1  0
 20 21  2  0
 21 22  1  0
 22 23  2  0
 11  7  1  0
 15 10  1  0
 23 18  1  0
M  END
$$$$
