
     RDKit          3D

 23 25  0  0  0  0  0  0  0  0999 V2000
    3.6614    2.6741    5.3112 C   0  0  0  0  0  0  0  0  0  0  0  0
    3.1555    2.4944    6.7302 C   0  0  0  0  0  0  0  0  0  0  0  0
    4.0062    2.4361    7.6226 O   0  0  0  0  0  0  0  0  0  0  0  0
    1.7906    2.3995    7.0099 N   0  0  0  0  0  0  0  0  0  0  0  0
    1.2175    2.1723    8.3065 C   0  0  0  0  0  0  0  0  0  0  0  0
    1.5950    3.2488    9.2927 C   0  0  0  0  0  0  0  0  0  0  0  0
    0.5983    4.2987    9.4773 C   0  0  0  0  0  0  0  0  0  0  0  0
    0.2138    5.3182    8.6473 C   0  0  0  0  0  0  0  0  0  0  0  0
   -0.7437    6.0203    9.3305 N   0  0  0  0  0  0  0  0  0  0  0  0
   -0.9756    5.5018   10.5260 C   0  0  0  0  0  0  0  0  0  0  0  0
   -0.1577    4.4296   10.6492 C   0  0  0  0  0  0  0  0  0  0  0  0
   -0.1604    3.6630   11.8026 C   0  0  0  0  0  0  0  0  0  0  0  0
   -0.9995    3.9585   12.8809 C   0  0  0  0  0  0  0  0  0  0  0  0
   -1.8232    5.0478   12.7421 C   0  0  0  0  0  0  0  0  0  0  0  0
   -1.8065    5.7936   11.5946 C   0  0  0  0  0  0  0  0  0  0  0  0
   -0.9500    3.1521   13.9993 O   0  0  0  0  0  0  0  0  0  0  0  0
   -1.6239    3.4418   15.1950 C   0  0  0  0  0  0  0  0  0  0  0  0
    0.6658    5.6871    7.3160 C   0  0  0  0  0  0  0  0  0  0  0  0
    0.5376    7.0266    6.9304 C   0  0  0  0  0  0  0  0  0  0  0  0
    0.9338    7.4428    5.6770 C   0  0  0  0  0  0  0  0  0  0  0  0
    1.4684    6.5686    4.7565 C   0  0  0  0  0  0  0  0  0  0  0  0
    1.6027    5.2534    5.1128 C   0  0  0  0  0  0  0  0  0  0  0  0
    1.1932    4.8620    6.3869 C   0  0  0  0  0  0  0  0  0  0  0  0
  1  2  1  0
  2  3  2  0
  2  4  1  0
  4  5  1  0
  5  6  1  0
  6  7  1  0
  7  8  2  0
  8  9  1  0
  9 10  1  0
 10 11  2  0
 11 12  1  0
 12 13  2  0
 13 14  1  0
 14 15  2  0
 13 16  1  0
 16 17  1  0
  8 18  1  0
 18 19  2  0
 19 20  1  0
 20 21  2  0
 21 22  1  0
 22 23  2  0
 11  7  1  0
 15 10  1  0
 23 18  1  0
M  END
$$$$
