
     RDKit          3D

 23 25  0  0  0  0  0  0  0  0999 V2000
    0.1891   -1.0912   11.6967 C   0  0  0  0  0  0  0  0  0  0  0  0
    0.8653    0.1875   11.2392 C   0  0  0  0  0  0  0  0  0  0  0  0
    1.0906    1.0395   12.1034 O   0  0  0  0  0  0  0  0  0  0  0  0
    1.2151    0.3878    9.9022 N   0  0  0  0  0  0  0  0  0  0  0  0
    1.8589    1.5571    9.3734 C   0  0  0  0  0  0  0  0  0  0  0  0
    0.9820    2.2968    8.3946 C   0  0  0  0  0  0  0  0  0  0  0  0
    0.8011    3.7176    8.6741 C   0  0  0  0  0  0  0  0  0  0  0  0
    1.3146    4.8216    8.0466 C   0  0  0  0  0  0  0  0  0  0  0  0
    0.8365    5.9042    8.7363 N   0  0  0  0  0  0  0  0  0  0  0  0
    0.0623    5.5419    9.7468 C   0  0  0  0  0  0  0  0  0  0  0  0
    0.0189    4.1884    9.7365 C   0  0  0  0  0  0  0  0  0  0  0  0
   -0.7178    3.4941   10.6815 C   0  0  0  0  0  0  0  0  0  0  0  0
   -1.4429    4.1527   11.6788 C   0  0  0  0  0  0  0  0  0  0  0  0
   -1.3900    5.5244   11.6772 C   0  0  0  0  0  0  0  0  0  0  0  0
   -0.6564    6.1933   10.7351 C   0  0  0  0  0  0  0  0  0  0  0  0
   -2.1550    3.3979   12.5882 O   0  0  0  0  0  0  0  0  0  0  0  0
   -2.7446    3.9295   13.7447 C   0  0  0  0  0  0  0  0  0  0  0  0
    2.2007    4.9423    6.9008 C   0  0  0  0  0  0  0  0  0  0  0  0
    3.0248    3.8530    6.5946 C   0  0  0  0  0  0  0  0  0  0  0  0
    3.8990    3.9048    5.5296 C   0  0  0  0  0  0  0  0  0  0  0  0
    4.0003    5.0192    4.7264 C   0  0  0  0  0  0  0  0  0  0  0  0
    3.2034    6.0964    5.0080 C   0  0  0  0  0  0  0  0  0  0  0  0
    2.3294    6.0149    6.0914 C   0  0  0  0  0  0  0  0  0  0  0  0
  1  2  1  0
  2  3  2  0
  2  4  1  0
  4  5  1  0
  5  6  1  0
  6  7  1  0
  7  8  2  0
  8  9  1  0
  9 10  1  0
 10 11  2  0
 11 12  1  0
 12 13  2  0
 13 14  1  0
 14 15  2  0
 13 16  1  0
 16 17  1  0
  8 18  1  0
 18 19  2  0
 19 20  1  0
 20 21  2  0
 21 22  1  0
 22 23  2  0
 11  7  1  0
 15 10  1  0
 23 18  1  0
M  END
$$$$
