
     RDKit          3D

 23 25  0  0  0  0  0  0  0  0999 V2000
    5.9275    0.8465    7.0741 C   0  0  0  0  0  0  0  0  0  0  0  0
    4.9105    1.9544    7.2745 C   0  0  0  0  0  0  0  0  0  0  0  0
    4.9035    2.5128    8.3753 O   0  0  0  0  0  0  0  0  0  0  0  0
    4.0255    2.3225    6.2590 N   0  0  0  0  0  0  0  0  0  0  0  0
    3.0161    3.3386    6.3586 C   0  0  0  0  0  0  0  0  0  0  0  0
    1.6736    2.7719    6.7468 C   0  0  0  0  0  0  0  0  0  0  0  0
    0.9453    3.5359    7.7546 C   0  0  0  0  0  0  0  0  0  0  0  0
    0.4732    4.8214    7.7291 C   0  0  0  0  0  0  0  0  0  0  0  0
   -0.1136    5.0322    8.9488 N   0  0  0  0  0  0  0  0  0  0  0  0
   -0.0352    3.9626    9.7245 C   0  0  0  0  0  0  0  0  0  0  0  0
    0.6174    3.0137    9.0123 C   0  0  0  0  0  0  0  0  0  0  0  0
    0.8624    1.7626    9.5532 C   0  0  0  0  0  0  0  0  0  0  0  0
    0.4510    1.4262   10.8461 C   0  0  0  0  0  0  0  0  0  0  0  0
   -0.2094    2.3976   11.5565 C   0  0  0  0  0  0  0  0  0  0  0  0
   -0.4424    3.6284   11.0052 C   0  0  0  0  0  0  0  0  0  0  0  0
    0.7285    0.1610   11.3216 O   0  0  0  0  0  0  0  0  0  0  0  0
   -0.0359   -0.4827   12.3060 C   0  0  0  0  0  0  0  0  0  0  0  0
    0.5379    5.8416    6.6958 C   0  0  0  0  0  0  0  0  0  0  0  0
    1.6188    5.8037    5.8072 C   0  0  0  0  0  0  0  0  0  0  0  0
    1.7495    6.7487    4.8117 C   0  0  0  0  0  0  0  0  0  0  0  0
    0.8318    7.7629    4.6477 C   0  0  0  0  0  0  0  0  0  0  0  0
   -0.2333    7.8189    5.5061 C   0  0  0  0  0  0  0  0  0  0  0  0
   -0.3388    6.8497    6.5030 C   0  0  0  0  0  0  0  0  0  0  0  0
  1  2  1  0
  2  3  2  0
  2  4  1  0
  4  5  1  0
  5  6  1  0
  6  7  1  0
  7  8  2  0
  8  9  1  0
  9 10  1  0
 10 11  2  0
 11 12  1  0
 12 13  2  0
 13 14  1  0
 14 15  2  0
 13 16  1  0
 16 17  1  0
  8 18  1  0
 18 19  2  0
 19 20  1  0
 20 21  2  0
 21 22  1  0
 22 23  2  0
 11  7  1  0
 15 10  1  0
 23 18  1  0
M  END
$$$$
