
     RDKit          3D

 22 24  0  0  0  0  0  0  0  0999 V2000
   -2.6180    1.4424   10.6402 C   0  0  0  0  0  0  0  0  0  0  0  0
   -1.2902    0.9501   11.2028 C   0  0  0  0  0  0  0  0  0  0  0  0
   -0.5359    2.2111   11.6362 C   0  0  0  0  0  0  0  0  0  0  0  0
   -0.4850    0.3137   10.2041 N   0  0  0  0  0  0  0  0  0  0  0  0
   -0.6045   -1.1298   10.2085 C   0  0  0  0  0  0  0  0  0  0  0  0
    0.8022   -1.6892   10.2252 C   0  0  0  0  0  0  0  0  0  0  0  0
    1.3323   -1.9021    8.8240 C   0  0  0  0  0  0  0  0  0  0  0  0
    2.4666   -2.7438    8.8931 O   0  0  0  0  0  0  0  0  0  0  0  0
    3.1868   -3.1413    7.7901 C   0  0  0  0  0  0  0  0  0  0  0  0
    2.6676   -3.1244    6.5042 C   0  0  0  0  0  0  0  0  0  0  0  0
    3.4158   -3.5290    5.4233 C   0  0  0  0  0  0  0  0  0  0  0  0
    4.7100   -3.9614    5.6171 C   0  0  0  0  0  0  0  0  0  0  0  0
    5.2449   -3.9880    6.8713 C   0  0  0  0  0  0  0  0  0  0  0  0
    4.4795   -3.5762    7.9613 C   0  0  0  0  0  0  0  0  0  0  0  0
    5.2367   -3.6942    9.1160 C   0  0  0  0  0  0  0  0  0  0  0  0
    4.9841   -3.4315   10.4542 C   0  0  0  0  0  0  0  0  0  0  0  0
    5.9737   -3.6603   11.3882 C   0  0  0  0  0  0  0  0  0  0  0  0
    7.1951   -4.1448   10.9820 C   0  0  0  0  0  0  0  0  0  0  0  0
    7.4367   -4.4027    9.6510 C   0  0  0  0  0  0  0  0  0  0  0  0
    6.4548   -4.1780    8.7059 C   0  0  0  0  0  0  0  0  0  0  0  0
    6.4412   -4.3458    7.3738 N   0  0  0  0  0  0  0  0  0  0  0  0
    0.8243   -2.8460   10.9654 O   0  0  0  0  0  0  0  0  0  0  0  0
  1  2  1  0
  2  3  1  0
  2  4  1  0
  4  5  1  0
  5  6  1  0
  6  7  1  0
  7  8  1  0
  8  9  1  0
  9 10  2  0
 10 11  1  0
 11 12  2  0
 12 13  1  0
 13 14  2  0
 14 15  1  0
 15 16  2  0
 16 17  1  0
 17 18  2  0
 18 19  1  0
 19 20  2  0
 20 21  1  0
  6 22  1  0
 14  9  1  0
 21 13  1  0
 20 15  1  0
M  END
$$$$
