
     RDKit          3D

 22 24  0  0  0  0  0  0  0  0999 V2000
   -3.2406   -0.5215   10.0459 C   0  0  0  0  0  0  0  0  0  0  0  0
   -1.9251   -0.6627   10.8017 C   0  0  0  0  0  0  0  0  0  0  0  0
   -1.7946    0.6133   11.6393 C   0  0  0  0  0  0  0  0  0  0  0  0
   -0.7975   -0.6908    9.9193 N   0  0  0  0  0  0  0  0  0  0  0  0
    0.4575   -0.9257   10.6033 C   0  0  0  0  0  0  0  0  0  0  0  0
    1.5440   -0.9125    9.5492 C   0  0  0  0  0  0  0  0  0  0  0  0
    2.9109   -1.1407   10.1570 C   0  0  0  0  0  0  0  0  0  0  0  0
    3.6674   -1.9489    9.2771 O   0  0  0  0  0  0  0  0  0  0  0  0
    4.9350   -2.4025    9.5615 C   0  0  0  0  0  0  0  0  0  0  0  0
    5.5792   -2.1380   10.7609 C   0  0  0  0  0  0  0  0  0  0  0  0
    6.8474   -2.6073   11.0125 C   0  0  0  0  0  0  0  0  0  0  0  0
    7.4962   -3.3570   10.0553 C   0  0  0  0  0  0  0  0  0  0  0  0
    6.8854   -3.6316    8.8672 C   0  0  0  0  0  0  0  0  0  0  0  0
    5.5999   -3.1520    8.6204 C   0  0  0  0  0  0  0  0  0  0  0  0
    5.1999   -3.5594    7.3575 C   0  0  0  0  0  0  0  0  0  0  0  0
    4.0431   -3.3717    6.6158 C   0  0  0  0  0  0  0  0  0  0  0  0
    3.9510   -3.9213    5.3535 C   0  0  0  0  0  0  0  0  0  0  0  0
    5.0044   -4.6465    4.8476 C   0  0  0  0  0  0  0  0  0  0  0  0
    6.1491   -4.8276    5.5916 C   0  0  0  0  0  0  0  0  0  0  0  0
    6.2543   -4.2828    6.8564 C   0  0  0  0  0  0  0  0  0  0  0  0
    7.2431   -4.3149    7.7640 N   0  0  0  0  0  0  0  0  0  0  0  0
    1.4834    0.2661    8.8462 O   0  0  0  0  0  0  0  0  0  0  0  0
  1  2  1  0
  2  3  1  0
  2  4  1  0
  4  5  1  0
  5  6  1  0
  6  7  1  0
  7  8  1  0
  8  9  1  0
  9 10  2  0
 10 11  1  0
 11 12  2  0
 12 13  1  0
 13 14  2  0
 14 15  1  0
 15 16  2  0
 16 17  1  0
 17 18  2  0
 18 19  1  0
 19 20  2  0
 20 21  1  0
  6 22  1  0
 14  9  1  0
 21 13  1  0
 20 15  1  0
M  END
$$$$
