
     RDKit          3D

 22 24  0  0  0  0  0  0  0  0999 V2000
   -0.5263   -2.5145   11.9958 C   0  0  0  0  0  0  0  0  0  0  0  0
   -0.2318   -1.3175   11.1001 C   0  0  0  0  0  0  0  0  0  0  0  0
   -1.5895   -0.6582   10.8376 C   0  0  0  0  0  0  0  0  0  0  0  0
    0.2850   -1.7136    9.8246 N   0  0  0  0  0  0  0  0  0  0  0  0
    1.3967   -0.8983    9.3805 C   0  0  0  0  0  0  0  0  0  0  0  0
    1.3629   -0.8924    7.8670 C   0  0  0  0  0  0  0  0  0  0  0  0
    1.8967   -2.1873    7.2941 C   0  0  0  0  0  0  0  0  0  0  0  0
    3.2821   -2.2648    7.5667 O   0  0  0  0  0  0  0  0  0  0  0  0
    4.1256   -3.1715    6.9667 C   0  0  0  0  0  0  0  0  0  0  0  0
    3.8653   -3.7386    5.7281 C   0  0  0  0  0  0  0  0  0  0  0  0
    4.7307   -4.6423    5.1571 C   0  0  0  0  0  0  0  0  0  0  0  0
    5.8828   -4.9952    5.8262 C   0  0  0  0  0  0  0  0  0  0  0  0
    6.1627   -4.4523    7.0455 C   0  0  0  0  0  0  0  0  0  0  0  0
    5.2801   -3.5370    7.6171 C   0  0  0  0  0  0  0  0  0  0  0  0
    5.7802   -3.1326    8.8448 C   0  0  0  0  0  0  0  0  0  0  0  0
    5.3254   -2.2566    9.8191 C   0  0  0  0  0  0  0  0  0  0  0  0
    6.0750   -2.0655   10.9617 C   0  0  0  0  0  0  0  0  0  0  0  0
    7.2607   -2.7440   11.1201 C   0  0  0  0  0  0  0  0  0  0  0  0
    7.7042   -3.6119   10.1471 C   0  0  0  0  0  0  0  0  0  0  0  0
    6.9635   -3.8124    8.9987 C   0  0  0  0  0  0  0  0  0  0  0  0
    7.1737   -4.5888    7.9237 N   0  0  0  0  0  0  0  0  0  0  0  0
    2.0518    0.2001    7.3995 O   0  0  0  0  0  0  0  0  0  0  0  0
  1  2  1  0
  2  3  1  0
  2  4  1  0
  4  5  1  0
  5  6  1  0
  6  7  1  0
  7  8  1  0
  8  9  1  0
  9 10  2  0
 10 11  1  0
 11 12  2  0
 12 13  1  0
 13 14  2  0
 14 15  1  0
 15 16  2  0
 16 17  1  0
 17 18  2  0
 18 19  1  0
 19 20  2  0
 20 21  1  0
  6 22  1  0
 14  9  1  0
 21 13  1  0
 20 15  1  0
M  END
$$$$
