
     RDKit          3D

 22 24  0  0  0  0  0  0  0  0999 V2000
    0.7146   -0.1091   12.0560 C   0  0  0  0  0  0  0  0  0  0  0  0
    1.8978   -0.3719   11.1325 C   0  0  0  0  0  0  0  0  0  0  0  0
    2.7945    0.8642   11.2533 C   0  0  0  0  0  0  0  0  0  0  0  0
    1.5004   -0.4575    9.7593 N   0  0  0  0  0  0  0  0  0  0  0  0
    1.1782   -1.8062    9.3408 C   0  0  0  0  0  0  0  0  0  0  0  0
    0.5967   -1.7087    7.9464 C   0  0  0  0  0  0  0  0  0  0  0  0
    1.5974   -2.1381    6.8957 C   0  0  0  0  0  0  0  0  0  0  0  0
    2.7493   -2.6379    7.5462 O   0  0  0  0  0  0  0  0  0  0  0  0
    3.7476   -3.3300    6.8998 C   0  0  0  0  0  0  0  0  0  0  0  0
    3.6846   -3.6647    5.5554 C   0  0  0  0  0  0  0  0  0  0  0  0
    4.7012   -4.3576    4.9405 C   0  0  0  0  0  0  0  0  0  0  0  0
    5.8086   -4.7296    5.6717 C   0  0  0  0  0  0  0  0  0  0  0  0
    5.8958   -4.4130    6.9954 C   0  0  0  0  0  0  0  0  0  0  0  0
    4.8608   -3.7105    7.6109 C   0  0  0  0  0  0  0  0  0  0  0  0
    5.1801   -3.5111    8.9446 C   0  0  0  0  0  0  0  0  0  0  0  0
    4.5298   -2.8873    9.9989 C   0  0  0  0  0  0  0  0  0  0  0  0
    5.1286   -2.8570   11.2417 C   0  0  0  0  0  0  0  0  0  0  0  0
    6.3595   -3.4441   11.4194 C   0  0  0  0  0  0  0  0  0  0  0  0
    6.9976   -4.0612   10.3665 C   0  0  0  0  0  0  0  0  0  0  0  0
    6.4093   -4.0986    9.1174 C   0  0  0  0  0  0  0  0  0  0  0  0
    6.8174   -4.6274    7.9527 N   0  0  0  0  0  0  0  0  0  0  0  0
    0.1399   -0.4314    7.7308 O   0  0  0  0  0  0  0  0  0  0  0  0
  1  2  1  0
  2  3  1  0
  2  4  1  0
  4  5  1  0
  5  6  1  0
  6  7  1  0
  7  8  1  0
  8  9  1  0
  9 10  2  0
 10 11  1  0
 11 12  2  0
 12 13  1  0
 13 14  2  0
 14 15  1  0
 15 16  2  0
 16 17  1  0
 17 18  2  0
 18 19  1  0
 19 20  2  0
 20 21  1  0
  6 22  1  0
 14  9  1  0
 21 13  1  0
 20 15  1  0
M  END
$$$$
