
     RDKit          3D

 22 24  0  0  0  0  0  0  0  0999 V2000
   -2.8441   -1.9740   11.0090 C   0  0  0  0  0  0  0  0  0  0  0  0
   -1.4227   -1.5457   11.3526 C   0  0  0  0  0  0  0  0  0  0  0  0
   -1.5712   -0.4183   12.3791 C   0  0  0  0  0  0  0  0  0  0  0  0
   -0.7415   -0.9857   10.2243 N   0  0  0  0  0  0  0  0  0  0  0  0
    0.4358   -1.7358    9.8378 C   0  0  0  0  0  0  0  0  0  0  0  0
    1.2922   -0.8116    8.9985 C   0  0  0  0  0  0  0  0  0  0  0  0
    2.7180   -0.7641    9.5031 C   0  0  0  0  0  0  0  0  0  0  0  0
    3.3910   -1.9286    9.0661 O   0  0  0  0  0  0  0  0  0  0  0  0
    4.6405   -2.2965    9.5099 C   0  0  0  0  0  0  0  0  0  0  0  0
    5.2006   -1.8042   10.6793 C   0  0  0  0  0  0  0  0  0  0  0  0
    6.4530   -2.1935   11.0937 C   0  0  0  0  0  0  0  0  0  0  0  0
    7.1708   -3.0918   10.3340 C   0  0  0  0  0  0  0  0  0  0  0  0
    6.6433   -3.5912    9.1797 C   0  0  0  0  0  0  0  0  0  0  0  0
    5.3732   -3.1913    8.7670 C   0  0  0  0  0  0  0  0  0  0  0  0
    5.0621   -3.8305    7.5773 C   0  0  0  0  0  0  0  0  0  0  0  0
    3.9561   -3.8053    6.7409 C   0  0  0  0  0  0  0  0  0  0  0  0
    3.9534   -4.5779    5.5976 C   0  0  0  0  0  0  0  0  0  0  0  0
    5.0443   -5.3615    5.3022 C   0  0  0  0  0  0  0  0  0  0  0  0
    6.1381   -5.3800    6.1388 C   0  0  0  0  0  0  0  0  0  0  0  0
    6.1538   -4.6114    7.2863 C   0  0  0  0  0  0  0  0  0  0  0  0
    7.0799   -4.4569    8.2461 N   0  0  0  0  0  0  0  0  0  0  0  0
    0.7172    0.4353    8.9618 O   0  0  0  0  0  0  0  0  0  0  0  0
  1  2  1  0
  2  3  1  0
  2  4  1  0
  4  5  1  0
  5  6  1  0
  6  7  1  0
  7  8  1  0
  8  9  1  0
  9 10  2  0
 10 11  1  0
 11 12  2  0
 12 13  1  0
 13 14  2  0
 14 15  1  0
 15 16  2  0
 16 17  1  0
 17 18  2  0
 18 19  1  0
 19 20  2  0
 20 21  1  0
  6 22  1  0
 14  9  1  0
 21 13  1  0
 20 15  1  0
M  END
$$$$
