
     RDKit          3D

 22 24  0  0  0  0  0  0  0  0999 V2000
    1.1750   -0.1520   11.8971 C   0  0  0  0  0  0  0  0  0  0  0  0
   -0.1502   -0.5345   11.2494 C   0  0  0  0  0  0  0  0  0  0  0  0
   -0.8162   -1.5105   12.2243 C   0  0  0  0  0  0  0  0  0  0  0  0
    0.0366   -1.2459   10.0206 N   0  0  0  0  0  0  0  0  0  0  0  0
    0.6600   -0.4460    8.9864 C   0  0  0  0  0  0  0  0  0  0  0  0
    0.6209   -1.2630    7.7125 C   0  0  0  0  0  0  0  0  0  0  0  0
    2.0065   -1.4647    7.1389 C   0  0  0  0  0  0  0  0  0  0  0  0
    2.5932   -2.5914    7.7603 O   0  0  0  0  0  0  0  0  0  0  0  0
    3.5894   -3.3453    7.1835 C   0  0  0  0  0  0  0  0  0  0  0  0
    3.5635   -3.7385    5.8538 C   0  0  0  0  0  0  0  0  0  0  0  0
    4.5768   -4.4924    5.3091 C   0  0  0  0  0  0  0  0  0  0  0  0
    5.6431   -4.8677    6.0975 C   0  0  0  0  0  0  0  0  0  0  0  0
    5.6932   -4.4942    7.4083 C   0  0  0  0  0  0  0  0  0  0  0  0
    4.6619   -3.7301    7.9523 C   0  0  0  0  0  0  0  0  0  0  0  0
    4.9394   -3.4809    9.2871 C   0  0  0  0  0  0  0  0  0  0  0  0
    4.2735   -2.7883   10.2874 C   0  0  0  0  0  0  0  0  0  0  0  0
    4.8275   -2.7216   11.5494 C   0  0  0  0  0  0  0  0  0  0  0  0
    6.0297   -3.3408   11.7994 C   0  0  0  0  0  0  0  0  0  0  0  0
    6.6836   -4.0263   10.7998 C   0  0  0  0  0  0  0  0  0  0  0  0
    6.1401   -4.1009    9.5322 C   0  0  0  0  0  0  0  0  0  0  0  0
    6.5713   -4.6956    8.4084 N   0  0  0  0  0  0  0  0  0  0  0  0
   -0.2269   -0.6646    6.8126 O   0  0  0  0  0  0  0  0  0  0  0  0
  1  2  1  0
  2  3  1  0
  2  4  1  0
  4  5  1  0
  5  6  1  0
  6  7  1  0
  7  8  1  0
  8  9  1  0
  9 10  2  0
 10 11  1  0
 11 12  2  0
 12 13  1  0
 13 14  2  0
 14 15  1  0
 15 16  2  0
 16 17  1  0
 17 18  2  0
 18 19  1  0
 19 20  2  0
 20 21  1  0
  6 22  1  0
 14  9  1  0
 21 13  1  0
 20 15  1  0
M  END
$$$$
