
     RDKit          3D

 22 24  0  0  0  0  0  0  0  0999 V2000
    0.1246   -2.4165   11.5989 C   0  0  0  0  0  0  0  0  0  0  0  0
    0.7217   -1.3932   10.6407 C   0  0  0  0  0  0  0  0  0  0  0  0
    0.8060   -0.0869   11.4364 C   0  0  0  0  0  0  0  0  0  0  0  0
   -0.1361   -1.1376    9.5228 N   0  0  0  0  0  0  0  0  0  0  0  0
    0.0320   -2.0898    8.4443 C   0  0  0  0  0  0  0  0  0  0  0  0
    0.5835   -1.3235    7.2609 C   0  0  0  0  0  0  0  0  0  0  0  0
    1.4641   -2.1973    6.3944 C   0  0  0  0  0  0  0  0  0  0  0  0
    2.6572   -2.4771    7.1001 O   0  0  0  0  0  0  0  0  0  0  0  0
    3.6399   -3.3175    6.6293 C   0  0  0  0  0  0  0  0  0  0  0  0
    3.5983   -3.8949    5.3690 C   0  0  0  0  0  0  0  0  0  0  0  0
    4.5983   -4.7309    4.9299 C   0  0  0  0  0  0  0  0  0  0  0  0
    5.6669   -5.0039    5.7564 C   0  0  0  0  0  0  0  0  0  0  0  0
    5.7323   -4.4491    7.0006 C   0  0  0  0  0  0  0  0  0  0  0  0
    4.7144   -3.6028    7.4377 C   0  0  0  0  0  0  0  0  0  0  0  0
    5.0059   -3.1705    8.7218 C   0  0  0  0  0  0  0  0  0  0  0  0
    4.3564   -2.3349    9.6181 C   0  0  0  0  0  0  0  0  0  0  0  0
    4.9217   -2.0968   10.8542 C   0  0  0  0  0  0  0  0  0  0  0  0
    6.1189   -2.6893   11.1814 C   0  0  0  0  0  0  0  0  0  0  0  0
    6.7565   -3.5176   10.2847 C   0  0  0  0  0  0  0  0  0  0  0  0
    6.2015   -3.7643    9.0442 C   0  0  0  0  0  0  0  0  0  0  0  0
    6.6165   -4.5176    8.0132 N   0  0  0  0  0  0  0  0  0  0  0  0
    1.2472   -0.2075    7.7091 O   0  0  0  0  0  0  0  0  0  0  0  0
  1  2  1  0
  2  3  1  0
  2  4  1  0
  4  5  1  0
  5  6  1  0
  6  7  1  0
  7  8  1  0
  8  9  1  0
  9 10  2  0
 10 11  1  0
 11 12  2  0
 12 13  1  0
 13 14  2  0
 14 15  1  0
 15 16  2  0
 16 17  1  0
 17 18  2  0
 18 19  1  0
 19 20  2  0
 20 21  1  0
  6 22  1  0
 14  9  1  0
 21 13  1  0
 20 15  1  0
M  END
$$$$
