
     RDKit          3D

 22 24  0  0  0  0  0  0  0  0999 V2000
   -2.0591   -2.1097   11.9307 C   0  0  0  0  0  0  0  0  0  0  0  0
   -1.2080   -1.2710   10.9852 C   0  0  0  0  0  0  0  0  0  0  0  0
   -2.2030   -0.5277   10.0884 C   0  0  0  0  0  0  0  0  0  0  0  0
   -0.4042   -2.0824   10.1212 N   0  0  0  0  0  0  0  0  0  0  0  0
    0.9809   -1.6621   10.0682 C   0  0  0  0  0  0  0  0  0  0  0  0
    1.1788   -0.9604    8.7414 C   0  0  0  0  0  0  0  0  0  0  0  0
    1.6428   -1.9212    7.6683 C   0  0  0  0  0  0  0  0  0  0  0  0
    2.9553   -2.3461    7.9790 O   0  0  0  0  0  0  0  0  0  0  0  0
    3.6849   -3.2025    7.1867 C   0  0  0  0  0  0  0  0  0  0  0  0
    3.2741   -3.5933    5.9210 C   0  0  0  0  0  0  0  0  0  0  0  0
    4.0285   -4.4514    5.1554 C   0  0  0  0  0  0  0  0  0  0  0  0
    5.2191   -4.9362    5.6521 C   0  0  0  0  0  0  0  0  0  0  0  0
    5.6462   -4.5678    6.8938 C   0  0  0  0  0  0  0  0  0  0  0  0
    4.8754   -3.6976    7.6632 C   0  0  0  0  0  0  0  0  0  0  0  0
    5.5144   -3.4768    8.8731 C   0  0  0  0  0  0  0  0  0  0  0  0
    5.2058   -2.7156    9.9906 C   0  0  0  0  0  0  0  0  0  0  0  0
    6.0728   -2.7056   11.0641 C   0  0  0  0  0  0  0  0  0  0  0  0
    7.2290   -3.4485   11.0130 C   0  0  0  0  0  0  0  0  0  0  0  0
    7.5269   -4.2014    9.8989 C   0  0  0  0  0  0  0  0  0  0  0  0
    6.6678   -4.2202    8.8176 C   0  0  0  0  0  0  0  0  0  0  0  0
    6.7289   -4.8594    7.6385 N   0  0  0  0  0  0  0  0  0  0  0  0
    2.0507    0.0882    8.9055 O   0  0  0  0  0  0  0  0  0  0  0  0
  1  2  1  0
  2  3  1  0
  2  4  1  0
  4  5  1  0
  5  6  1  0
  6  7  1  0
  7  8  1  0
  8  9  1  0
  9 10  2  0
 10 11  1  0
 11 12  2  0
 12 13  1  0
 13 14  2  0
 14 15  1  0
 15 16  2  0
 16 17  1  0
 17 18  2  0
 18 19  1  0
 19 20  2  0
 20 21  1  0
  6 22  1  0
 14  9  1  0
 21 13  1  0
 20 15  1  0
M  END
$$$$
