
     RDKit          3D

 22 24  0  0  0  0  0  0  0  0999 V2000
   -3.3030    0.5840    9.0996 C   0  0  0  0  0  0  0  0  0  0  0  0
   -2.3373   -0.4257    9.7078 C   0  0  0  0  0  0  0  0  0  0  0  0
   -2.2329   -0.0517   11.1897 C   0  0  0  0  0  0  0  0  0  0  0  0
   -1.0191   -0.3069    9.1611 N   0  0  0  0  0  0  0  0  0  0  0  0
    0.0054   -0.8780   10.0109 C   0  0  0  0  0  0  0  0  0  0  0  0
    1.3295   -0.6698    9.3071 C   0  0  0  0  0  0  0  0  0  0  0  0
    1.6078   -1.7725    8.3089 C   0  0  0  0  0  0  0  0  0  0  0  0
    3.0046   -1.9838    8.2468 O   0  0  0  0  0  0  0  0  0  0  0  0
    3.6033   -2.8571    7.3679 C   0  0  0  0  0  0  0  0  0  0  0  0
    3.0835   -3.1392    6.1134 C   0  0  0  0  0  0  0  0  0  0  0  0
    3.7082   -4.0180    5.2595 C   0  0  0  0  0  0  0  0  0  0  0  0
    4.8760   -4.6341    5.6542 C   0  0  0  0  0  0  0  0  0  0  0  0
    5.4085   -4.3744    6.8826 C   0  0  0  0  0  0  0  0  0  0  0  0
    4.7689   -3.4823    7.7420 C   0  0  0  0  0  0  0  0  0  0  0  0
    5.4964   -3.3867    8.9177 C   0  0  0  0  0  0  0  0  0  0  0  0
    5.3268   -2.6636   10.0890 C   0  0  0  0  0  0  0  0  0  0  0  0
    6.2531   -2.7905   11.1038 C   0  0  0  0  0  0  0  0  0  0  0  0
    7.3303   -3.6300   10.9419 C   0  0  0  0  0  0  0  0  0  0  0  0
    7.4904   -4.3440    9.7752 C   0  0  0  0  0  0  0  0  0  0  0  0
    6.5705   -4.2262    8.7516 C   0  0  0  0  0  0  0  0  0  0  0  0
    6.5018   -4.8023    7.5409 N   0  0  0  0  0  0  0  0  0  0  0  0
    2.3300   -0.5565   10.2414 O   0  0  0  0  0  0  0  0  0  0  0  0
  1  2  1  0
  2  3  1  0
  2  4  1  0
  4  5  1  0
  5  6  1  0
  6  7  1  0
  7  8  1  0
  8  9  1  0
  9 10  2  0
 10 11  1  0
 11 12  2  0
 12 13  1  0
 13 14  2  0
 14 15  1  0
 15 16  2  0
 16 17  1  0
 17 18  2  0
 18 19  1  0
 19 20  2  0
 20 21  1  0
  6 22  1  0
 14  9  1  0
 21 13  1  0
 20 15  1  0
M  END
$$$$
