
     RDKit          3D

 22 24  0  0  0  0  0  0  0  0999 V2000
    0.1083    1.2505   13.3296 C   0  0  0  0  0  0  0  0  0  0  0  0
    0.0073    1.3478   11.8123 C   0  0  0  0  0  0  0  0  0  0  0  0
   -1.2560    2.1695   11.5375 C   0  0  0  0  0  0  0  0  0  0  0  0
   -0.1956    0.0677   11.2030 N   0  0  0  0  0  0  0  0  0  0  0  0
    0.2777    0.0045    9.8356 C   0  0  0  0  0  0  0  0  0  0  0  0
    0.4713   -1.4596    9.5027 C   0  0  0  0  0  0  0  0  0  0  0  0
    1.6061   -2.0654   10.2997 C   0  0  0  0  0  0  0  0  0  0  0  0
    2.7279   -2.2093    9.4509 O   0  0  0  0  0  0  0  0  0  0  0  0
    3.9486   -2.6803    9.8771 C   0  0  0  0  0  0  0  0  0  0  0  0
    4.3757   -2.5854   11.1932 C   0  0  0  0  0  0  0  0  0  0  0  0
    5.6030   -3.0670   11.5852 C   0  0  0  0  0  0  0  0  0  0  0  0
    6.4297   -3.6575   10.6540 C   0  0  0  0  0  0  0  0  0  0  0  0
    6.0339   -3.7636    9.3532 C   0  0  0  0  0  0  0  0  0  0  0  0
    4.7884   -3.2727    8.9643 C   0  0  0  0  0  0  0  0  0  0  0  0
    4.6180   -3.4958    7.6072 C   0  0  0  0  0  0  0  0  0  0  0  0
    3.5924   -3.2188    6.7156 C   0  0  0  0  0  0  0  0  0  0  0  0
    3.7310   -3.5780    5.3905 C   0  0  0  0  0  0  0  0  0  0  0  0
    4.8812   -4.2045    4.9712 C   0  0  0  0  0  0  0  0  0  0  0  0
    5.8943   -4.4755    5.8638 C   0  0  0  0  0  0  0  0  0  0  0  0
    5.7683   -4.1213    7.1929 C   0  0  0  0  0  0  0  0  0  0  0  0
    6.5950   -4.2714    8.2401 N   0  0  0  0  0  0  0  0  0  0  0  0
    0.6609   -1.5986    8.1494 O   0  0  0  0  0  0  0  0  0  0  0  0
  1  2  1  0
  2  3  1  0
  2  4  1  0
  4  5  1  0
  5  6  1  0
  6  7  1  0
  7  8  1  0
  8  9  1  0
  9 10  2  0
 10 11  1  0
 11 12  2  0
 12 13  1  0
 13 14  2  0
 14 15  1  0
 15 16  2  0
 16 17  1  0
 17 18  2  0
 18 19  1  0
 19 20  2  0
 20 21  1  0
  6 22  1  0
 14  9  1  0
 21 13  1  0
 20 15  1  0
M  END
$$$$
