
     RDKit          3D

 22 24  0  0  0  0  0  0  0  0999 V2000
   -1.4362    0.8525   11.8875 C   0  0  0  0  0  0  0  0  0  0  0  0
   -1.2843    1.0736   10.3875 C   0  0  0  0  0  0  0  0  0  0  0  0
   -2.7031    1.3165    9.8633 C   0  0  0  0  0  0  0  0  0  0  0  0
   -0.7942   -0.0938    9.7182 N   0  0  0  0  0  0  0  0  0  0  0  0
    0.4700    0.1221    9.0451 C   0  0  0  0  0  0  0  0  0  0  0  0
    1.3004   -1.1263    9.2544 C   0  0  0  0  0  0  0  0  0  0  0  0
    2.0627   -1.5031    8.0027 C   0  0  0  0  0  0  0  0  0  0  0  0
    2.7756   -2.6989    8.2506 O   0  0  0  0  0  0  0  0  0  0  0  0
    3.5956   -3.3013    7.3242 C   0  0  0  0  0  0  0  0  0  0  0  0
    3.2038   -3.5466    6.0166 C   0  0  0  0  0  0  0  0  0  0  0  0
    4.0495   -4.1512    5.1160 C   0  0  0  0  0  0  0  0  0  0  0  0
    5.3146   -4.5231    5.5167 C   0  0  0  0  0  0  0  0  0  0  0  0
    5.7250   -4.2933    6.7968 C   0  0  0  0  0  0  0  0  0  0  0  0
    4.8615   -3.6801    7.7032 C   0  0  0  0  0  0  0  0  0  0  0  0
    5.5020   -3.5576    8.9261 C   0  0  0  0  0  0  0  0  0  0  0  0
    5.1232   -3.0357   10.1540 C   0  0  0  0  0  0  0  0  0  0  0  0
    6.0154   -3.0634   11.2063 C   0  0  0  0  0  0  0  0  0  0  0  0
    7.2658   -3.6067   11.0253 C   0  0  0  0  0  0  0  0  0  0  0  0
    7.6329   -4.1226    9.8024 C   0  0  0  0  0  0  0  0  0  0  0  0
    6.7495   -4.1011    8.7408 C   0  0  0  0  0  0  0  0  0  0  0  0
    6.8636   -4.5315    7.4742 N   0  0  0  0  0  0  0  0  0  0  0  0
    0.4896   -2.1459    9.6900 O   0  0  0  0  0  0  0  0  0  0  0  0
  1  2  1  0
  2  3  1  0
  2  4  1  0
  4  5  1  0
  5  6  1  0
  6  7  1  0
  7  8  1  0
  8  9  1  0
  9 10  2  0
 10 11  1  0
 11 12  2  0
 12 13  1  0
 13 14  2  0
 14 15  1  0
 15 16  2  0
 16 17  1  0
 17 18  2  0
 18 19  1  0
 19 20  2  0
 20 21  1  0
  6 22  1  0
 14  9  1  0
 21 13  1  0
 20 15  1  0
M  END
$$$$
