
     RDKit          3D

 22 24  0  0  0  0  0  0  0  0999 V2000
   -0.0497    1.2038   13.3634 C   0  0  0  0  0  0  0  0  0  0  0  0
   -0.0887    1.4397   11.8585 C   0  0  0  0  0  0  0  0  0  0  0  0
   -1.5276    1.8636   11.5473 C   0  0  0  0  0  0  0  0  0  0  0  0
    0.1537    0.2378   11.1186 N   0  0  0  0  0  0  0  0  0  0  0  0
    0.8498    0.4667    9.8692 C   0  0  0  0  0  0  0  0  0  0  0  0
    0.6787   -0.7836    9.0329 C   0  0  0  0  0  0  0  0  0  0  0  0
    1.4086   -1.9622    9.6396 C   0  0  0  0  0  0  0  0  0  0  0  0
    2.5836   -2.2005    8.8899 O   0  0  0  0  0  0  0  0  0  0  0  0
    3.8046   -2.4822    9.4587 C   0  0  0  0  0  0  0  0  0  0  0  0
    4.1044   -2.1944   10.7819 C   0  0  0  0  0  0  0  0  0  0  0  0
    5.3359   -2.4896   11.3186 C   0  0  0  0  0  0  0  0  0  0  0  0
    6.2960   -3.0842   10.5287 C   0  0  0  0  0  0  0  0  0  0  0  0
    6.0270   -3.3778    9.2243 C   0  0  0  0  0  0  0  0  0  0  0  0
    4.7762   -3.0752    8.6882 C   0  0  0  0  0  0  0  0  0  0  0  0
    4.7475   -3.4656    7.3588 C   0  0  0  0  0  0  0  0  0  0  0  0
    3.7799   -3.4055    6.3670 C   0  0  0  0  0  0  0  0  0  0  0  0
    4.0684   -3.8922    5.1084 C   0  0  0  0  0  0  0  0  0  0  0  0
    5.3085   -4.4294    4.8535 C   0  0  0  0  0  0  0  0  0  0  0  0
    6.2630   -4.4847    5.8447 C   0  0  0  0  0  0  0  0  0  0  0  0
    5.9872   -4.0011    7.1087 C   0  0  0  0  0  0  0  0  0  0  0  0
    6.7312   -3.9407    8.2247 N   0  0  0  0  0  0  0  0  0  0  0  0
    1.0879   -0.5315    7.7462 O   0  0  0  0  0  0  0  0  0  0  0  0
  1  2  1  0
  2  3  1  0
  2  4  1  0
  4  5  1  0
  5  6  1  0
  6  7  1  0
  7  8  1  0
  8  9  1  0
  9 10  2  0
 10 11  1  0
 11 12  2  0
 12 13  1  0
 13 14  2  0
 14 15  1  0
 15 16  2  0
 16 17  1  0
 17 18  2  0
 18 19  1  0
 19 20  2  0
 20 21  1  0
  6 22  1  0
 14  9  1  0
 21 13  1  0
 20 15  1  0
M  END
$$$$
