
     RDKit          3D

 22 24  0  0  0  0  0  0  0  0999 V2000
   -2.2622   -0.0897   12.5146 C   0  0  0  0  0  0  0  0  0  0  0  0
   -0.9353   -0.6788   12.0516 C   0  0  0  0  0  0  0  0  0  0  0  0
    0.1292   -0.0549   12.9595 C   0  0  0  0  0  0  0  0  0  0  0  0
   -0.6114   -0.2890   10.7122 N   0  0  0  0  0  0  0  0  0  0  0  0
    0.4149   -1.1145   10.1094 C   0  0  0  0  0  0  0  0  0  0  0  0
    0.5221   -0.6962    8.6583 C   0  0  0  0  0  0  0  0  0  0  0  0
    0.8870   -1.8646    7.7686 C   0  0  0  0  0  0  0  0  0  0  0  0
    2.2774   -2.0984    7.8775 O   0  0  0  0  0  0  0  0  0  0  0  0
    2.9828   -2.9050    7.0141 C   0  0  0  0  0  0  0  0  0  0  0  0
    2.5287   -3.2295    5.7445 C   0  0  0  0  0  0  0  0  0  0  0  0
    3.2598   -4.0391    4.9067 C   0  0  0  0  0  0  0  0  0  0  0  0
    4.4702   -4.5412    5.3334 C   0  0  0  0  0  0  0  0  0  0  0  0
    4.9398   -4.2375    6.5773 C   0  0  0  0  0  0  0  0  0  0  0  0
    4.1924   -3.4162    7.4201 C   0  0  0  0  0  0  0  0  0  0  0  0
    4.8734   -3.2567    8.6166 C   0  0  0  0  0  0  0  0  0  0  0  0
    4.6011   -2.5596    9.7843 C   0  0  0  0  0  0  0  0  0  0  0  0
    5.5061   -2.6015   10.8251 C   0  0  0  0  0  0  0  0  0  0  0  0
    6.6639   -3.3318   10.6923 C   0  0  0  0  0  0  0  0  0  0  0  0
    6.9257   -4.0207    9.5289 C   0  0  0  0  0  0  0  0  0  0  0  0
    6.0282   -3.9872    8.4795 C   0  0  0  0  0  0  0  0  0  0  0  0
    6.0503   -4.5609    7.2658 N   0  0  0  0  0  0  0  0  0  0  0  0
    1.4208    0.3366    8.5464 O   0  0  0  0  0  0  0  0  0  0  0  0
  1  2  1  0
  2  3  1  0
  2  4  1  0
  4  5  1  0
  5  6  1  0
  6  7  1  0
  7  8  1  0
  8  9  1  0
  9 10  2  0
 10 11  1  0
 11 12  2  0
 12 13  1  0
 13 14  2  0
 14 15  1  0
 15 16  2  0
 16 17  1  0
 17 18  2  0
 18 19  1  0
 19 20  2  0
 20 21  1  0
  6 22  1  0
 14  9  1  0
 21 13  1  0
 20 15  1  0
M  END
$$$$
