
     RDKit          3D

 22 24  0  0  0  0  0  0  0  0999 V2000
   -2.2264   -0.6788   11.8633 C   0  0  0  0  0  0  0  0  0  0  0  0
   -0.8671   -0.7645   12.5465 C   0  0  0  0  0  0  0  0  0  0  0  0
   -1.0338   -0.0359   13.8837 C   0  0  0  0  0  0  0  0  0  0  0  0
    0.1462   -0.0605   11.8196 N   0  0  0  0  0  0  0  0  0  0  0  0
    1.3434   -0.8463   11.6020 C   0  0  0  0  0  0  0  0  0  0  0  0
    2.2642   -0.0166   10.7329 C   0  0  0  0  0  0  0  0  0  0  0  0
    2.1038   -0.3592    9.2677 C   0  0  0  0  0  0  0  0  0  0  0  0
    2.9170   -1.4782    8.9738 O   0  0  0  0  0  0  0  0  0  0  0  0
    2.9838   -2.0640    7.7304 C   0  0  0  0  0  0  0  0  0  0  0  0
    2.0642   -1.8059    6.7248 C   0  0  0  0  0  0  0  0  0  0  0  0
    2.1609   -2.4094    5.4926 C   0  0  0  0  0  0  0  0  0  0  0  0
    3.1919   -3.2903    5.2470 C   0  0  0  0  0  0  0  0  0  0  0  0
    4.1097   -3.5617    6.2186 C   0  0  0  0  0  0  0  0  0  0  0  0
    4.0043   -2.9457    7.4647 C   0  0  0  0  0  0  0  0  0  0  0  0
    5.0436   -3.3790    8.2727 C   0  0  0  0  0  0  0  0  0  0  0  0
    5.4185   -3.0984    9.5782 C   0  0  0  0  0  0  0  0  0  0  0  0
    6.5359   -3.7101   10.1086 C   0  0  0  0  0  0  0  0  0  0  0  0
    7.2623   -4.5879    9.3384 C   0  0  0  0  0  0  0  0  0  0  0  0
    6.8823   -4.8603    8.0430 C   0  0  0  0  0  0  0  0  0  0  0  0
    5.7659   -4.2549    7.5000 C   0  0  0  0  0  0  0  0  0  0  0  0
    5.1982   -4.3506    6.2870 N   0  0  0  0  0  0  0  0  0  0  0  0
    3.5601   -0.1750   11.1599 O   0  0  0  0  0  0  0  0  0  0  0  0
  1  2  1  0
  2  3  1  0
  2  4  1  0
  4  5  1  0
  5  6  1  0
  6  7  1  0
  7  8  1  0
  8  9  1  0
  9 10  2  0
 10 11  1  0
 11 12  2  0
 12 13  1  0
 13 14  2  0
 14 15  1  0
 15 16  2  0
 16 17  1  0
 17 18  2  0
 18 19  1  0
 19 20  2  0
 20 21  1  0
  6 22  1  0
 14  9  1  0
 21 13  1  0
 20 15  1  0
M  END
$$$$
