
     RDKit          3D

 22 24  0  0  0  0  0  0  0  0999 V2000
   -1.1120    1.3571   12.4900 C   0  0  0  0  0  0  0  0  0  0  0  0
    0.1680    0.9400   11.7760 C   0  0  0  0  0  0  0  0  0  0  0  0
    1.1914    2.0338   12.0970 C   0  0  0  0  0  0  0  0  0  0  0  0
    0.0116    0.9299   10.3525 N   0  0  0  0  0  0  0  0  0  0  0  0
    1.0209    0.1445    9.6725 C   0  0  0  0  0  0  0  0  0  0  0  0
    0.3425   -1.1170    9.1823 C   0  0  0  0  0  0  0  0  0  0  0  0
    0.9937   -2.3569    9.7554 C   0  0  0  0  0  0  0  0  0  0  0  0
    2.1878   -2.6110    9.0418 O   0  0  0  0  0  0  0  0  0  0  0  0
    3.2764   -3.2537    9.5854 C   0  0  0  0  0  0  0  0  0  0  0  0
    3.4621   -3.3977   10.9522 C   0  0  0  0  0  0  0  0  0  0  0  0
    4.5626   -4.0464   11.4619 C   0  0  0  0  0  0  0  0  0  0  0  0
    5.5040   -4.5663   10.6000 C   0  0  0  0  0  0  0  0  0  0  0  0
    5.3455   -4.4385    9.2515 C   0  0  0  0  0  0  0  0  0  0  0  0
    4.2271   -3.7795    8.7433 C   0  0  0  0  0  0  0  0  0  0  0  0
    4.2923   -3.7797    7.3589 C   0  0  0  0  0  0  0  0  0  0  0  0
    3.4669   -3.2767    6.3643 C   0  0  0  0  0  0  0  0  0  0  0  0
    3.8203   -3.4449    5.0411 C   0  0  0  0  0  0  0  0  0  0  0  0
    4.9834   -4.1074    4.7255 C   0  0  0  0  0  0  0  0  0  0  0  0
    5.7967   -4.6034    5.7200 C   0  0  0  0  0  0  0  0  0  0  0  0
    5.4547   -4.4420    7.0484 C   0  0  0  0  0  0  0  0  0  0  0  0
    6.0650   -4.8246    8.1814 N   0  0  0  0  0  0  0  0  0  0  0  0
    0.3357   -1.1270    7.8087 O   0  0  0  0  0  0  0  0  0  0  0  0
  1  2  1  0
  2  3  1  0
  2  4  1  0
  4  5  1  0
  5  6  1  0
  6  7  1  0
  7  8  1  0
  8  9  1  0
  9 10  2  0
 10 11  1  0
 11 12  2  0
 12 13  1  0
 13 14  2  0
 14 15  1  0
 15 16  2  0
 16 17  1  0
 17 18  2  0
 18 19  1  0
 19 20  2  0
 20 21  1  0
  6 22  1  0
 14  9  1  0
 21 13  1  0
 20 15  1  0
M  END
$$$$
