
     RDKit          3D

 22 24  0  0  0  0  0  0  0  0999 V2000
   -1.1606   -2.0617   11.8099 C   0  0  0  0  0  0  0  0  0  0  0  0
   -0.6946   -0.6434   11.5046 C   0  0  0  0  0  0  0  0  0  0  0  0
   -1.9150    0.2502   11.7473 C   0  0  0  0  0  0  0  0  0  0  0  0
   -0.3339   -0.4797   10.1283 N   0  0  0  0  0  0  0  0  0  0  0  0
    0.3285   -1.6402    9.5695 C   0  0  0  0  0  0  0  0  0  0  0  0
    0.7623   -1.2685    8.1675 C   0  0  0  0  0  0  0  0  0  0  0  0
    1.4304   -2.4309    7.4659 C   0  0  0  0  0  0  0  0  0  0  0  0
    2.8284   -2.3278    7.6521 O   0  0  0  0  0  0  0  0  0  0  0  0
    3.7456   -3.0844    6.9593 C   0  0  0  0  0  0  0  0  0  0  0  0
    3.6023   -3.4002    5.6165 C   0  0  0  0  0  0  0  0  0  0  0  0
    4.5390   -4.1593    4.9545 C   0  0  0  0  0  0  0  0  0  0  0  0
    5.6455   -4.6184    5.6357 C   0  0  0  0  0  0  0  0  0  0  0  0
    5.8107   -4.3222    6.9567 C   0  0  0  0  0  0  0  0  0  0  0  0
    4.8565   -3.5522    7.6201 C   0  0  0  0  0  0  0  0  0  0  0  0
    5.2448   -3.3898    8.9406 C   0  0  0  0  0  0  0  0  0  0  0  0
    4.6864   -2.7308   10.0256 C   0  0  0  0  0  0  0  0  0  0  0  0
    5.3370   -2.7566   11.2422 C   0  0  0  0  0  0  0  0  0  0  0  0
    6.5279   -3.4336   11.3637 C   0  0  0  0  0  0  0  0  0  0  0  0
    7.0747   -4.0851   10.2806 C   0  0  0  0  0  0  0  0  0  0  0  0
    6.4338   -4.0671    9.0573 C   0  0  0  0  0  0  0  0  0  0  0  0
    6.7532   -4.6127    7.8728 N   0  0  0  0  0  0  0  0  0  0  0  0
    1.5750   -0.1624    8.2195 O   0  0  0  0  0  0  0  0  0  0  0  0
  1  2  1  0
  2  3  1  0
  2  4  1  0
  4  5  1  0
  5  6  1  0
  6  7  1  0
  7  8  1  0
  8  9  1  0
  9 10  2  0
 10 11  1  0
 11 12  2  0
 12 13  1  0
 13 14  2  0
 14 15  1  0
 15 16  2  0
 16 17  1  0
 17 18  2  0
 18 19  1  0
 19 20  2  0
 20 21  1  0
  6 22  1  0
 14  9  1  0
 21 13  1  0
 20 15  1  0
M  END
$$$$
