
     RDKit          3D

 22 24  0  0  0  0  0  0  0  0999 V2000
   -1.5460    0.3742   12.6643 C   0  0  0  0  0  0  0  0  0  0  0  0
   -1.4930   -0.3570   11.3284 C   0  0  0  0  0  0  0  0  0  0  0  0
   -2.0782   -1.7468   11.5984 C   0  0  0  0  0  0  0  0  0  0  0  0
   -0.1486   -0.5588   10.8780 N   0  0  0  0  0  0  0  0  0  0  0  0
    0.0640   -0.1389    9.5082 C   0  0  0  0  0  0  0  0  0  0  0  0
    1.0073   -1.1428    8.8801 C   0  0  0  0  0  0  0  0  0  0  0  0
    2.3191   -1.2178    9.6305 C   0  0  0  0  0  0  0  0  0  0  0  0
    3.2134   -2.0313    8.8969 O   0  0  0  0  0  0  0  0  0  0  0  0
    4.4410   -2.4322    9.3721 C   0  0  0  0  0  0  0  0  0  0  0  0
    4.9347   -2.0435   10.6085 C   0  0  0  0  0  0  0  0  0  0  0  0
    6.1669   -2.4631   11.0528 C   0  0  0  0  0  0  0  0  0  0  0  0
    6.9313   -3.2878   10.2560 C   0  0  0  0  0  0  0  0  0  0  0  0
    6.4694   -3.6849    9.0357 C   0  0  0  0  0  0  0  0  0  0  0  0
    5.2193   -3.2549    8.5931 C   0  0  0  0  0  0  0  0  0  0  0  0
    4.9767   -3.7873    7.3367 C   0  0  0  0  0  0  0  0  0  0  0  0
    3.9160   -3.6922    6.4483 C   0  0  0  0  0  0  0  0  0  0  0  0
    3.9799   -4.3605    5.2427 C   0  0  0  0  0  0  0  0  0  0  0  0
    5.0916   -5.1105    4.9376 C   0  0  0  0  0  0  0  0  0  0  0  0
    6.1400   -5.1990    5.8261 C   0  0  0  0  0  0  0  0  0  0  0  0
    6.0888   -4.5351    7.0363 C   0  0  0  0  0  0  0  0  0  0  0  0
    6.9618   -4.4627    8.0537 N   0  0  0  0  0  0  0  0  0  0  0  0
    1.1892   -0.8307    7.5549 O   0  0  0  0  0  0  0  0  0  0  0  0
  1  2  1  0
  2  3  1  0
  2  4  1  0
  4  5  1  0
  5  6  1  0
  6  7  1  0
  7  8  1  0
  8  9  1  0
  9 10  2  0
 10 11  1  0
 11 12  2  0
 12 13  1  0
 13 14  2  0
 14 15  1  0
 15 16  2  0
 16 17  1  0
 17 18  2  0
 18 19  1  0
 19 20  2  0
 20 21  1  0
  6 22  1  0
 14  9  1  0
 21 13  1  0
 20 15  1  0
M  END
$$$$
