
     RDKit          3D

 22 24  0  0  0  0  0  0  0  0999 V2000
    0.1120   -0.8906   11.8215 C   0  0  0  0  0  0  0  0  0  0  0  0
    1.2915   -0.5674   10.9125 C   0  0  0  0  0  0  0  0  0  0  0  0
    1.7384    0.8437   11.3070 C   0  0  0  0  0  0  0  0  0  0  0  0
    0.9078   -0.5056    9.5341 N   0  0  0  0  0  0  0  0  0  0  0  0
    0.7243   -1.8107    8.9332 C   0  0  0  0  0  0  0  0  0  0  0  0
    0.4519   -1.5845    7.4612 C   0  0  0  0  0  0  0  0  0  0  0  0
    1.7080   -1.7440    6.6327 C   0  0  0  0  0  0  0  0  0  0  0  0
    2.6429   -2.5054    7.3714 O   0  0  0  0  0  0  0  0  0  0  0  0
    3.6404   -3.2553    6.7916 C   0  0  0  0  0  0  0  0  0  0  0  0
    3.5848   -3.6978    5.4783 C   0  0  0  0  0  0  0  0  0  0  0  0
    4.6003   -4.4461    4.9302 C   0  0  0  0  0  0  0  0  0  0  0  0
    5.6990   -4.7657    5.6982 C   0  0  0  0  0  0  0  0  0  0  0  0
    5.7789   -4.3431    6.9925 C   0  0  0  0  0  0  0  0  0  0  0  0
    4.7451   -3.5851    7.5403 C   0  0  0  0  0  0  0  0  0  0  0  0
    5.0560   -3.2801    8.8560 C   0  0  0  0  0  0  0  0  0  0  0  0
    4.4029   -2.5677    9.8507 C   0  0  0  0  0  0  0  0  0  0  0  0
    4.9925   -2.4409   11.0917 C   0  0  0  0  0  0  0  0  0  0  0  0
    6.2173   -3.0208   11.3266 C   0  0  0  0  0  0  0  0  0  0  0  0
    6.8582   -3.7263   10.3327 C   0  0  0  0  0  0  0  0  0  0  0  0
    6.2790   -3.8609    9.0860 C   0  0  0  0  0  0  0  0  0  0  0  0
    6.6915   -4.4858    7.9715 N   0  0  0  0  0  0  0  0  0  0  0  0
   -0.1257   -0.3503    7.2885 O   0  0  0  0  0  0  0  0  0  0  0  0
  1  2  1  0
  2  3  1  0
  2  4  1  0
  4  5  1  0
  5  6  1  0
  6  7  1  0
  7  8  1  0
  8  9  1  0
  9 10  2  0
 10 11  1  0
 11 12  2  0
 12 13  1  0
 13 14  2  0
 14 15  1  0
 15 16  2  0
 16 17  1  0
 17 18  2  0
 18 19  1  0
 19 20  2  0
 20 21  1  0
  6 22  1  0
 14  9  1  0
 21 13  1  0
 20 15  1  0
M  END
$$$$
