
     RDKit          3D

 22 24  0  0  0  0  0  0  0  0999 V2000
   -0.5632    1.5691   12.5727 C   0  0  0  0  0  0  0  0  0  0  0  0
   -1.3933    0.8355   11.5264 C   0  0  0  0  0  0  0  0  0  0  0  0
   -2.6031    0.2761   12.2814 C   0  0  0  0  0  0  0  0  0  0  0  0
   -0.6964   -0.2890   10.9779 N   0  0  0  0  0  0  0  0  0  0  0  0
   -0.0315    0.0063    9.7255 C   0  0  0  0  0  0  0  0  0  0  0  0
    0.6522   -1.2679    9.2774 C   0  0  0  0  0  0  0  0  0  0  0  0
    1.8504   -1.5899   10.1437 C   0  0  0  0  0  0  0  0  0  0  0  0
    2.8983   -2.0493    9.3127 O   0  0  0  0  0  0  0  0  0  0  0  0
    4.1125   -2.4856    9.7911 C   0  0  0  0  0  0  0  0  0  0  0  0
    4.5388   -2.2533   11.0903 C   0  0  0  0  0  0  0  0  0  0  0  0
    5.7595   -2.7041   11.5358 C   0  0  0  0  0  0  0  0  0  0  0  0
    6.5804   -3.4022   10.6766 C   0  0  0  0  0  0  0  0  0  0  0  0
    6.1853   -3.6443    9.3939 C   0  0  0  0  0  0  0  0  0  0  0  0
    4.9465   -3.1838    8.9505 C   0  0  0  0  0  0  0  0  0  0  0  0
    4.7755   -3.5511    7.6251 C   0  0  0  0  0  0  0  0  0  0  0  0
    3.7546   -3.3604    6.7059 C   0  0  0  0  0  0  0  0  0  0  0  0
    3.8909   -3.8631    5.4281 C   0  0  0  0  0  0  0  0  0  0  0  0
    5.0340   -4.5452    5.0825 C   0  0  0  0  0  0  0  0  0  0  0  0
    6.0423   -4.7296    6.0022 C   0  0  0  0  0  0  0  0  0  0  0  0
    5.9187   -4.2315    7.2845 C   0  0  0  0  0  0  0  0  0  0  0  0
    6.7419   -4.2768    8.3442 N   0  0  0  0  0  0  0  0  0  0  0  0
    0.9899   -1.1621    7.9502 O   0  0  0  0  0  0  0  0  0  0  0  0
  1  2  1  0
  2  3  1  0
  2  4  1  0
  4  5  1  0
  5  6  1  0
  6  7  1  0
  7  8  1  0
  8  9  1  0
  9 10  2  0
 10 11  1  0
 11 12  2  0
 12 13  1  0
 13 14  2  0
 14 15  1  0
 15 16  2  0
 16 17  1  0
 17 18  2  0
 18 19  1  0
 19 20  2  0
 20 21  1  0
  6 22  1  0
 14  9  1  0
 21 13  1  0
 20 15  1  0
M  END
$$$$
