
     RDKit          3D

 22 24  0  0  0  0  0  0  0  0999 V2000
   -1.8572    0.4206   12.1791 C   0  0  0  0  0  0  0  0  0  0  0  0
   -0.4218    0.2717   11.6899 C   0  0  0  0  0  0  0  0  0  0  0  0
    0.1240    1.6988   11.5800 C   0  0  0  0  0  0  0  0  0  0  0  0
   -0.3568   -0.2945   10.3761 N   0  0  0  0  0  0  0  0  0  0  0  0
    0.6463   -1.3318   10.2501 C   0  0  0  0  0  0  0  0  0  0  0  0
    0.4508   -1.9723    8.8923 C   0  0  0  0  0  0  0  0  0  0  0  0
    1.5040   -1.5167    7.9060 C   0  0  0  0  0  0  0  0  0  0  0  0
    2.7353   -2.1224    8.2479 O   0  0  0  0  0  0  0  0  0  0  0  0
    3.4791   -2.8801    7.3726 C   0  0  0  0  0  0  0  0  0  0  0  0
    3.1330   -3.0502    6.0404 C   0  0  0  0  0  0  0  0  0  0  0  0
    3.8998   -3.8150    5.1924 C   0  0  0  0  0  0  0  0  0  0  0  0
    5.0373   -4.4275    5.6720 C   0  0  0  0  0  0  0  0  0  0  0  0
    5.4002   -4.2765    6.9780 C   0  0  0  0  0  0  0  0  0  0  0  0
    4.6174   -3.4996    7.8307 C   0  0  0  0  0  0  0  0  0  0  0  0
    5.1878   -3.4995    9.0937 C   0  0  0  0  0  0  0  0  0  0  0  0
    4.8401   -2.9063   10.2982 C   0  0  0  0  0  0  0  0  0  0  0  0
    5.6381   -3.1042   11.4063 C   0  0  0  0  0  0  0  0  0  0  0  0
    6.7656   -3.8850   11.3033 C   0  0  0  0  0  0  0  0  0  0  0  0
    7.1028   -4.4700   10.1030 C   0  0  0  0  0  0  0  0  0  0  0  0
    6.3127   -4.2800    8.9862 C   0  0  0  0  0  0  0  0  0  0  0  0
    6.4223   -4.7314    7.7265 N   0  0  0  0  0  0  0  0  0  0  0  0
   -0.8213   -1.7122    8.4441 O   0  0  0  0  0  0  0  0  0  0  0  0
  1  2  1  0
  2  3  1  0
  2  4  1  0
  4  5  1  0
  5  6  1  0
  6  7  1  0
  7  8  1  0
  8  9  1  0
  9 10  2  0
 10 11  1  0
 11 12  2  0
 12 13  1  0
 13 14  2  0
 14 15  1  0
 15 16  2  0
 16 17  1  0
 17 18  2  0
 18 19  1  0
 19 20  2  0
 20 21  1  0
  6 22  1  0
 14  9  1  0
 21 13  1  0
 20 15  1  0
M  END
$$$$
