
     RDKit          3D

 22 24  0  0  0  0  0  0  0  0999 V2000
    0.2704    1.8009   12.8075 C   0  0  0  0  0  0  0  0  0  0  0  0
   -0.3628    1.0218   11.6612 C   0  0  0  0  0  0  0  0  0  0  0  0
   -1.5552    0.2831   12.2772 C   0  0  0  0  0  0  0  0  0  0  0  0
    0.5169    0.0184   11.1414 N   0  0  0  0  0  0  0  0  0  0  0  0
   -0.1729   -1.0188   10.4023 C   0  0  0  0  0  0  0  0  0  0  0  0
    0.8902   -1.8968    9.7771 C   0  0  0  0  0  0  0  0  0  0  0  0
    2.2535   -1.6324   10.3782 C   0  0  0  0  0  0  0  0  0  0  0  0
    3.2408   -2.1185    9.4901 O   0  0  0  0  0  0  0  0  0  0  0  0
    4.4279   -2.6773    9.9048 C   0  0  0  0  0  0  0  0  0  0  0  0
    4.9659   -2.4569   11.1640 C   0  0  0  0  0  0  0  0  0  0  0  0
    6.1555   -3.0318   11.5461 C   0  0  0  0  0  0  0  0  0  0  0  0
    6.8315   -3.8451   10.6624 C   0  0  0  0  0  0  0  0  0  0  0  0
    6.3244   -4.0783    9.4179 C   0  0  0  0  0  0  0  0  0  0  0  0
    5.1180   -3.4916    9.0387 C   0  0  0  0  0  0  0  0  0  0  0  0
    4.8161   -3.8762    7.7419 C   0  0  0  0  0  0  0  0  0  0  0  0
    3.7626   -3.5967    6.8842 C   0  0  0  0  0  0  0  0  0  0  0  0
    3.7531   -4.1497    5.6200 C   0  0  0  0  0  0  0  0  0  0  0  0
    4.7855   -4.9690    5.2270 C   0  0  0  0  0  0  0  0  0  0  0  0
    5.8274   -5.2407    6.0857 C   0  0  0  0  0  0  0  0  0  0  0  0
    5.8491   -4.6936    7.3538 C   0  0  0  0  0  0  0  0  0  0  0  0
    6.7327   -4.8018    8.3588 N   0  0  0  0  0  0  0  0  0  0  0  0
    0.8850   -1.7198    8.4149 O   0  0  0  0  0  0  0  0  0  0  0  0
  1  2  1  0
  2  3  1  0
  2  4  1  0
  4  5  1  0
  5  6  1  0
  6  7  1  0
  7  8  1  0
  8  9  1  0
  9 10  2  0
 10 11  1  0
 11 12  2  0
 12 13  1  0
 13 14  2  0
 14 15  1  0
 15 16  2  0
 16 17  1  0
 17 18  2  0
 18 19  1  0
 19 20  2  0
 20 21  1  0
  6 22  1  0
 14  9  1  0
 21 13  1  0
 20 15  1  0
M  END
$$$$
