
     RDKit          3D

 22 24  0  0  0  0  0  0  0  0999 V2000
   -1.5576   -0.2922   12.3354 C   0  0  0  0  0  0  0  0  0  0  0  0
   -0.9079    0.7793   11.4684 C   0  0  0  0  0  0  0  0  0  0  0  0
   -1.8100    2.0110   11.5942 C   0  0  0  0  0  0  0  0  0  0  0  0
   -0.8983    0.4179   10.0827 N   0  0  0  0  0  0  0  0  0  0  0  0
    0.4360    0.2392    9.5481 C   0  0  0  0  0  0  0  0  0  0  0  0
    0.5895   -1.2323    9.2272 C   0  0  0  0  0  0  0  0  0  0  0  0
    1.6543   -1.8801   10.0853 C   0  0  0  0  0  0  0  0  0  0  0  0
    2.7650   -2.1929    9.2677 O   0  0  0  0  0  0  0  0  0  0  0  0
    4.0076   -2.5147    9.7636 C   0  0  0  0  0  0  0  0  0  0  0  0
    4.4036   -2.2148   11.0585 C   0  0  0  0  0  0  0  0  0  0  0  0
    5.6541   -2.5512   11.5220 C   0  0  0  0  0  0  0  0  0  0  0  0
    6.5363   -3.2004   10.6856 C   0  0  0  0  0  0  0  0  0  0  0  0
    6.1721   -3.5070    9.4075 C   0  0  0  0  0  0  0  0  0  0  0  0
    4.9026   -3.1624    8.9458 C   0  0  0  0  0  0  0  0  0  0  0  0
    4.7724   -3.5762    7.6296 C   0  0  0  0  0  0  0  0  0  0  0  0
    3.7460   -3.4944    6.7003 C   0  0  0  0  0  0  0  0  0  0  0  0
    3.9328   -4.0165    5.4368 C   0  0  0  0  0  0  0  0  0  0  0  0
    5.1311   -4.6099    5.1151 C   0  0  0  0  0  0  0  0  0  0  0  0
    6.1444   -4.6865    6.0445 C   0  0  0  0  0  0  0  0  0  0  0  0
    5.9705   -4.1679    7.3128 C   0  0  0  0  0  0  0  0  0  0  0  0
    6.7869   -4.1177    8.3775 N   0  0  0  0  0  0  0  0  0  0  0  0
    0.8471   -1.3823    7.8863 O   0  0  0  0  0  0  0  0  0  0  0  0
  1  2  1  0
  2  3  1  0
  2  4  1  0
  4  5  1  0
  5  6  1  0
  6  7  1  0
  7  8  1  0
  8  9  1  0
  9 10  2  0
 10 11  1  0
 11 12  2  0
 12 13  1  0
 13 14  2  0
 14 15  1  0
 15 16  2  0
 16 17  1  0
 17 18  2  0
 18 19  1  0
 19 20  2  0
 20 21  1  0
  6 22  1  0
 14  9  1  0
 21 13  1  0
 20 15  1  0
M  END
$$$$
