
     RDKit          3D

 22 24  0  0  0  0  0  0  0  0999 V2000
   -1.0459    1.6434   11.7010 C   0  0  0  0  0  0  0  0  0  0  0  0
    0.2498    0.8951   11.4124 C   0  0  0  0  0  0  0  0  0  0  0  0
    1.2162    1.9471   10.8591 C   0  0  0  0  0  0  0  0  0  0  0  0
    0.0853   -0.0904   10.3864 N   0  0  0  0  0  0  0  0  0  0  0  0
    0.9504   -1.2399   10.5544 C   0  0  0  0  0  0  0  0  0  0  0  0
    0.5113   -2.2748    9.5405 C   0  0  0  0  0  0  0  0  0  0  0  0
    1.2907   -2.1534    8.2491 C   0  0  0  0  0  0  0  0  0  0  0  0
    2.6326   -2.5261    8.4945 O   0  0  0  0  0  0  0  0  0  0  0  0
    3.4779   -3.0083    7.5216 C   0  0  0  0  0  0  0  0  0  0  0  0
    3.1213   -3.0860    6.1836 C   0  0  0  0  0  0  0  0  0  0  0  0
    3.9916   -3.5736    5.2367 C   0  0  0  0  0  0  0  0  0  0  0  0
    5.2461   -3.9955    5.6207 C   0  0  0  0  0  0  0  0  0  0  0  0
    5.6220   -3.9299    6.9301 C   0  0  0  0  0  0  0  0  0  0  0  0
    4.7338   -3.4343    7.8834 C   0  0  0  0  0  0  0  0  0  0  0  0
    5.3413   -3.4683    9.1286 C   0  0  0  0  0  0  0  0  0  0  0  0
    4.9292   -3.1048   10.4020 C   0  0  0  0  0  0  0  0  0  0  0  0
    5.7931   -3.2668   11.4657 C   0  0  0  0  0  0  0  0  0  0  0  0
    7.0486   -3.7853   11.2509 C   0  0  0  0  0  0  0  0  0  0  0  0
    7.4489   -4.1435    9.9828 C   0  0  0  0  0  0  0  0  0  0  0  0
    6.5941   -3.9865    8.9094 C   0  0  0  0  0  0  0  0  0  0  0  0
    6.7425   -4.2538    7.6020 N   0  0  0  0  0  0  0  0  0  0  0  0
   -0.8428   -2.1680    9.3366 O   0  0  0  0  0  0  0  0  0  0  0  0
  1  2  1  0
  2  3  1  0
  2  4  1  0
  4  5  1  0
  5  6  1  0
  6  7  1  0
  7  8  1  0
  8  9  1  0
  9 10  2  0
 10 11  1  0
 11 12  2  0
 12 13  1  0
 13 14  2  0
 14 15  1  0
 15 16  2  0
 16 17  1  0
 17 18  2  0
 18 19  1  0
 19 20  2  0
 20 21  1  0
  6 22  1  0
 14  9  1  0
 21 13  1  0
 20 15  1  0
M  END
$$$$
