
     RDKit          3D

 22 24  0  0  0  0  0  0  0  0999 V2000
    0.7966   -2.1197   12.0197 C   0  0  0  0  0  0  0  0  0  0  0  0
    0.9549   -1.0005   10.9978 C   0  0  0  0  0  0  0  0  0  0  0  0
   -0.1688   -0.0050   11.3029 C   0  0  0  0  0  0  0  0  0  0  0  0
    0.7426   -1.4604    9.6583 N   0  0  0  0  0  0  0  0  0  0  0  0
    1.4538   -0.6800    8.6668 C   0  0  0  0  0  0  0  0  0  0  0  0
    0.9217   -1.0967    7.3121 C   0  0  0  0  0  0  0  0  0  0  0  0
    2.0148   -1.6730    6.4389 C   0  0  0  0  0  0  0  0  0  0  0  0
    2.9790   -2.2894    7.2697 O   0  0  0  0  0  0  0  0  0  0  0  0
    3.9545   -3.1394    6.8012 C   0  0  0  0  0  0  0  0  0  0  0  0
    3.9323   -3.6826    5.5254 C   0  0  0  0  0  0  0  0  0  0  0  0
    4.9245   -4.5295    5.0893 C   0  0  0  0  0  0  0  0  0  0  0  0
    5.9653   -4.8482    5.9345 C   0  0  0  0  0  0  0  0  0  0  0  0
    6.0112   -4.3277    7.1943 C   0  0  0  0  0  0  0  0  0  0  0  0
    5.0015   -3.4701    7.6283 C   0  0  0  0  0  0  0  0  0  0  0  0
    5.2696   -3.0781    8.9303 C   0  0  0  0  0  0  0  0  0  0  0  0
    4.6162   -2.2515    9.8321 C   0  0  0  0  0  0  0  0  0  0  0  0
    5.1549   -2.0587   11.0878 C   0  0  0  0  0  0  0  0  0  0  0  0
    6.3299   -2.6867   11.4288 C   0  0  0  0  0  0  0  0  0  0  0  0
    6.9717   -3.5057   10.5266 C   0  0  0  0  0  0  0  0  0  0  0  0
    6.4432   -3.7072    9.2664 C   0  0  0  0  0  0  0  0  0  0  0  0
    6.8676   -4.4426    8.2264 N   0  0  0  0  0  0  0  0  0  0  0  0
    0.2985   -0.0265    6.7179 O   0  0  0  0  0  0  0  0  0  0  0  0
  1  2  1  0
  2  3  1  0
  2  4  1  0
  4  5  1  0
  5  6  1  0
  6  7  1  0
  7  8  1  0
  8  9  1  0
  9 10  2  0
 10 11  1  0
 11 12  2  0
 12 13  1  0
 13 14  2  0
 14 15  1  0
 15 16  2  0
 16 17  1  0
 17 18  2  0
 18 19  1  0
 19 20  2  0
 20 21  1  0
  6 22  1  0
 14  9  1  0
 21 13  1  0
 20 15  1  0
M  END
$$$$
