
     RDKit          3D

 22 24  0  0  0  0  0  0  0  0999 V2000
    0.7176   -1.5261   12.2168 C   0  0  0  0  0  0  0  0  0  0  0  0
    0.9251   -0.6210   11.0086 C   0  0  0  0  0  0  0  0  0  0  0  0
   -0.2304    0.3841   11.0463 C   0  0  0  0  0  0  0  0  0  0  0  0
    0.8064   -1.3360    9.7735 N   0  0  0  0  0  0  0  0  0  0  0  0
    0.9949   -0.4974    8.6076 C   0  0  0  0  0  0  0  0  0  0  0  0
    0.8731   -1.3944    7.3942 C   0  0  0  0  0  0  0  0  0  0  0  0
    2.1865   -1.5056    6.6510 C   0  0  0  0  0  0  0  0  0  0  0  0
    3.0776   -2.2866    7.4229 O   0  0  0  0  0  0  0  0  0  0  0  0
    3.9821   -3.1694    6.8786 C   0  0  0  0  0  0  0  0  0  0  0  0
    3.8919   -3.6334    5.5748 C   0  0  0  0  0  0  0  0  0  0  0  0
    4.8139   -4.5161    5.0624 C   0  0  0  0  0  0  0  0  0  0  0  0
    5.8516   -4.9518    5.8577 C   0  0  0  0  0  0  0  0  0  0  0  0
    5.9636   -4.5110    7.1435 C   0  0  0  0  0  0  0  0  0  0  0  0
    5.0247   -3.6164    7.6549 C   0  0  0  0  0  0  0  0  0  0  0  0
    5.3508   -3.3206    8.9690 C   0  0  0  0  0  0  0  0  0  0  0  0
    4.7767   -2.5079    9.9353 C   0  0  0  0  0  0  0  0  0  0  0  0
    5.3581   -2.4256   11.1839 C   0  0  0  0  0  0  0  0  0  0  0  0
    6.4966   -3.1482   11.4545 C   0  0  0  0  0  0  0  0  0  0  0  0
    7.0594   -3.9526   10.4886 C   0  0  0  0  0  0  0  0  0  0  0  0
    6.4875   -4.0441    9.2347 C   0  0  0  0  0  0  0  0  0  0  0  0
    6.8356   -4.7428    8.1423 N   0  0  0  0  0  0  0  0  0  0  0  0
   -0.1382   -0.9344    6.5865 O   0  0  0  0  0  0  0  0  0  0  0  0
  1  2  1  0
  2  3  1  0
  2  4  1  0
  4  5  1  0
  5  6  1  0
  6  7  1  0
  7  8  1  0
  8  9  1  0
  9 10  2  0
 10 11  1  0
 11 12  2  0
 12 13  1  0
 13 14  2  0
 14 15  1  0
 15 16  2  0
 16 17  1  0
 17 18  2  0
 18 19  1  0
 19 20  2  0
 20 21  1  0
  6 22  1  0
 14  9  1  0
 21 13  1  0
 20 15  1  0
M  END
$$$$
