
     RDKit          3D

 22 24  0  0  0  0  0  0  0  0999 V2000
   -1.6353   -2.1999   11.2963 C   0  0  0  0  0  0  0  0  0  0  0  0
   -0.3479   -1.5927   10.7522 C   0  0  0  0  0  0  0  0  0  0  0  0
    0.2177   -0.7412   11.8931 C   0  0  0  0  0  0  0  0  0  0  0  0
   -0.5933   -0.7016    9.6583 N   0  0  0  0  0  0  0  0  0  0  0  0
   -0.8399   -1.3878    8.4068 C   0  0  0  0  0  0  0  0  0  0  0  0
    0.3903   -1.1926    7.5463 C   0  0  0  0  0  0  0  0  0  0  0  0
    1.1228   -2.4971    7.3197 C   0  0  0  0  0  0  0  0  0  0  0  0
    2.4941   -2.2163    7.1185 O   0  0  0  0  0  0  0  0  0  0  0  0
    3.4074   -3.1529    6.6916 C   0  0  0  0  0  0  0  0  0  0  0  0
    3.3499   -3.7462    5.4394 C   0  0  0  0  0  0  0  0  0  0  0  0
    4.2799   -4.6795    5.0447 C   0  0  0  0  0  0  0  0  0  0  0  0
    5.2928   -5.0361    5.9085 C   0  0  0  0  0  0  0  0  0  0  0  0
    5.3725   -4.4677    7.1457 C   0  0  0  0  0  0  0  0  0  0  0  0
    4.4257   -3.5226    7.5378 C   0  0  0  0  0  0  0  0  0  0  0  0
    4.7177   -3.0965    8.8238 C   0  0  0  0  0  0  0  0  0  0  0  0
    4.1227   -2.1881    9.6866 C   0  0  0  0  0  0  0  0  0  0  0  0
    4.6703   -1.9817   10.9362 C   0  0  0  0  0  0  0  0  0  0  0  0
    5.7964   -2.6773   11.3099 C   0  0  0  0  0  0  0  0  0  0  0  0
    6.3802   -3.5773   10.4463 C   0  0  0  0  0  0  0  0  0  0  0  0
    5.8421   -3.7933    9.1927 C   0  0  0  0  0  0  0  0  0  0  0  0
    6.2155   -4.6002    8.1867 N   0  0  0  0  0  0  0  0  0  0  0  0
    1.1993   -0.2401    8.1164 O   0  0  0  0  0  0  0  0  0  0  0  0
  1  2  1  0
  2  3  1  0
  2  4  1  0
  4  5  1  0
  5  6  1  0
  6  7  1  0
  7  8  1  0
  8  9  1  0
  9 10  2  0
 10 11  1  0
 11 12  2  0
 12 13  1  0
 13 14  2  0
 14 15  1  0
 15 16  2  0
 16 17  1  0
 17 18  2  0
 18 19  1  0
 19 20  2  0
 20 21  1  0
  6 22  1  0
 14  9  1  0
 21 13  1  0
 20 15  1  0
M  END
$$$$
