
     RDKit          3D

 22 24  0  0  0  0  0  0  0  0999 V2000
   -1.1575   -1.0504   11.6206 C   0  0  0  0  0  0  0  0  0  0  0  0
    0.2210   -0.6166   11.1375 C   0  0  0  0  0  0  0  0  0  0  0  0
    0.4416    0.7797   11.7278 C   0  0  0  0  0  0  0  0  0  0  0  0
    0.2718   -0.4723    9.7135 N   0  0  0  0  0  0  0  0  0  0  0  0
    0.5187   -1.7205    9.0214 C   0  0  0  0  0  0  0  0  0  0  0  0
    0.6076   -1.3965    7.5452 C   0  0  0  0  0  0  0  0  0  0  0  0
    2.0353   -1.4579    7.0477 C   0  0  0  0  0  0  0  0  0  0  0  0
    2.6587   -2.5992    7.6031 O   0  0  0  0  0  0  0  0  0  0  0  0
    3.6610   -3.3006    6.9729 C   0  0  0  0  0  0  0  0  0  0  0  0
    3.5688   -3.7298    5.6574 C   0  0  0  0  0  0  0  0  0  0  0  0
    4.5902   -4.4293    5.0581 C   0  0  0  0  0  0  0  0  0  0  0  0
    5.7320   -4.7122    5.7761 C   0  0  0  0  0  0  0  0  0  0  0  0
    5.8483   -4.3017    7.0715 C   0  0  0  0  0  0  0  0  0  0  0  0
    4.8082   -3.5932    7.6712 C   0  0  0  0  0  0  0  0  0  0  0  0
    5.1609   -3.2910    8.9770 C   0  0  0  0  0  0  0  0  0  0  0  0
    4.5213   -2.6176   10.0070 C   0  0  0  0  0  0  0  0  0  0  0  0
    5.1564   -2.4809   11.2244 C   0  0  0  0  0  0  0  0  0  0  0  0
    6.4124   -3.0126   11.4011 C   0  0  0  0  0  0  0  0  0  0  0  0
    7.0396   -3.6796   10.3724 C   0  0  0  0  0  0  0  0  0  0  0  0
    6.4151   -3.8235    9.1489 C   0  0  0  0  0  0  0  0  0  0  0  0
    6.8059   -4.4180    8.0103 N   0  0  0  0  0  0  0  0  0  0  0  0
    0.0331   -0.1709    7.3116 O   0  0  0  0  0  0  0  0  0  0  0  0
  1  2  1  0
  2  3  1  0
  2  4  1  0
  4  5  1  0
  5  6  1  0
  6  7  1  0
  7  8  1  0
  8  9  1  0
  9 10  2  0
 10 11  1  0
 11 12  2  0
 12 13  1  0
 13 14  2  0
 14 15  1  0
 15 16  2  0
 16 17  1  0
 17 18  2  0
 18 19  1  0
 19 20  2  0
 20 21  1  0
  6 22  1  0
 14  9  1  0
 21 13  1  0
 20 15  1  0
M  END
$$$$
