
     RDKit          3D

 22 24  0  0  0  0  0  0  0  0999 V2000
    0.7412   -0.8643   12.5505 C   0  0  0  0  0  0  0  0  0  0  0  0
    0.9631   -0.2607   11.1691 C   0  0  0  0  0  0  0  0  0  0  0  0
    0.6024    1.2218   11.3069 C   0  0  0  0  0  0  0  0  0  0  0  0
    0.0720   -0.8102   10.1919 N   0  0  0  0  0  0  0  0  0  0  0  0
    0.6355   -1.9343    9.4730 C   0  0  0  0  0  0  0  0  0  0  0  0
    0.3965   -1.6808    7.9997 C   0  0  0  0  0  0  0  0  0  0  0  0
    1.6787   -1.7845    7.2028 C   0  0  0  0  0  0  0  0  0  0  0  0
    2.5416   -2.6976    7.8519 O   0  0  0  0  0  0  0  0  0  0  0  0
    3.4978   -3.4382    7.1955 C   0  0  0  0  0  0  0  0  0  0  0  0
    3.3812   -3.8104    5.8646 C   0  0  0  0  0  0  0  0  0  0  0  0
    4.3567   -4.5514    5.2392 C   0  0  0  0  0  0  0  0  0  0  0  0
    5.4759   -4.9348    5.9460 C   0  0  0  0  0  0  0  0  0  0  0  0
    5.6154   -4.5820    7.2560 C   0  0  0  0  0  0  0  0  0  0  0  0
    4.6220   -3.8308    7.8822 C   0  0  0  0  0  0  0  0  0  0  0  0
    4.9903   -3.6018    9.1985 C   0  0  0  0  0  0  0  0  0  0  0  0
    4.3931   -2.9278   10.2534 C   0  0  0  0  0  0  0  0  0  0  0  0
    5.0327   -2.8788   11.4750 C   0  0  0  0  0  0  0  0  0  0  0  0
    6.2512   -3.4971   11.6314 C   0  0  0  0  0  0  0  0  0  0  0  0
    6.8364   -4.1640   10.5782 C   0  0  0  0  0  0  0  0  0  0  0  0
    6.2068   -4.2206    9.3501 C   0  0  0  0  0  0  0  0  0  0  0  0
    6.5611   -4.7957    8.1897 N   0  0  0  0  0  0  0  0  0  0  0  0
   -0.2120   -0.4598    7.8397 O   0  0  0  0  0  0  0  0  0  0  0  0
  1  2  1  0
  2  3  1  0
  2  4  1  0
  4  5  1  0
  5  6  1  0
  6  7  1  0
  7  8  1  0
  8  9  1  0
  9 10  2  0
 10 11  1  0
 11 12  2  0
 12 13  1  0
 13 14  2  0
 14 15  1  0
 15 16  2  0
 16 17  1  0
 17 18  2  0
 18 19  1  0
 19 20  2  0
 20 21  1  0
  6 22  1  0
 14  9  1  0
 21 13  1  0
 20 15  1  0
M  END
$$$$
