
     RDKit          3D

 22 24  0  0  0  0  0  0  0  0999 V2000
   -3.2329   -0.3127   10.2330 C   0  0  0  0  0  0  0  0  0  0  0  0
   -1.9842    0.3968    9.7237 C   0  0  0  0  0  0  0  0  0  0  0  0
   -2.3883    1.0299    8.3885 C   0  0  0  0  0  0  0  0  0  0  0  0
   -0.9225   -0.5207    9.4377 N   0  0  0  0  0  0  0  0  0  0  0  0
    0.2370   -0.3350   10.2857 C   0  0  0  0  0  0  0  0  0  0  0  0
    1.0889   -1.5787   10.1473 C   0  0  0  0  0  0  0  0  0  0  0  0
    1.5439   -1.7846    8.7188 C   0  0  0  0  0  0  0  0  0  0  0  0
    2.8262   -2.3805    8.7345 O   0  0  0  0  0  0  0  0  0  0  0  0
    3.3278   -3.1330    7.6973 C   0  0  0  0  0  0  0  0  0  0  0  0
    2.6605   -3.2960    6.4924 C   0  0  0  0  0  0  0  0  0  0  0  0
    3.1912   -4.0557    5.4760 C   0  0  0  0  0  0  0  0  0  0  0  0
    4.4119   -4.6702    5.6537 C   0  0  0  0  0  0  0  0  0  0  0  0
    5.0889   -4.5261    6.8288 C   0  0  0  0  0  0  0  0  0  0  0  0
    4.5439   -3.7543    7.8539 C   0  0  0  0  0  0  0  0  0  0  0  0
    5.4111   -3.7608    8.9349 C   0  0  0  0  0  0  0  0  0  0  0  0
    5.3749   -3.1743   10.1912 C   0  0  0  0  0  0  0  0  0  0  0  0
    6.4237   -3.3778   11.0645 C   0  0  0  0  0  0  0  0  0  0  0  0
    7.4893   -4.1574   10.6795 C   0  0  0  0  0  0  0  0  0  0  0  0
    7.5164   -4.7356    9.4299 C   0  0  0  0  0  0  0  0  0  0  0  0
    6.4730   -4.5400    8.5463 C   0  0  0  0  0  0  0  0  0  0  0  0
    6.2649   -4.9845    7.2965 N   0  0  0  0  0  0  0  0  0  0  0  0
    0.3956   -2.6626   10.6282 O   0  0  0  0  0  0  0  0  0  0  0  0
  1  2  1  0
  2  3  1  0
  2  4  1  0
  4  5  1  0
  5  6  1  0
  6  7  1  0
  7  8  1  0
  8  9  1  0
  9 10  2  0
 10 11  1  0
 11 12  2  0
 12 13  1  0
 13 14  2  0
 14 15  1  0
 15 16  2  0
 16 17  1  0
 17 18  2  0
 18 19  1  0
 19 20  2  0
 20 21  1  0
  6 22  1  0
 14  9  1  0
 21 13  1  0
 20 15  1  0
M  END
$$$$
