
     RDKit          3D

 31 38  0  0  0  0  0  0  0  0999 V2000
   -2.9258    4.1888    8.1632 C   0  0  0  0  0  0  0  0  0  0  0  0
   -3.1903    3.1725    7.1351 C   0  0  0  0  0  0  0  0  0  0  0  0
   -1.8950    3.1139    7.9089 C   0  0  0  0  0  0  0  0  0  0  0  0
   -1.7930    1.9209    8.8705 C   0  0  0  0  0  0  0  0  0  0  0  0
   -0.4402    1.7974    9.3418 N   0  0  0  0  0  0  0  0  0  0  0  0
    0.4915    1.7482    8.2129 C   0  0  0  0  0  0  0  0  0  0  0  0
    1.8801    1.8270    8.7416 C   0  0  0  0  0  0  0  0  0  0  0  0
    2.1253    0.8006    9.7961 C   0  0  0  0  0  0  0  0  0  0  0  0
    3.5172    0.8859   10.3288 C   0  0  0  0  0  0  0  0  0  0  0  0
    3.5783    0.6600   11.7560 C   0  0  0  0  0  0  0  0  0  0  0  0
    2.5097    0.9248   12.5830 C   0  0  0  0  0  0  0  0  0  0  0  0
    1.2283    1.4495   11.9599 C   0  0  0  0  0  0  0  0  0  0  0  0
    1.0198    0.5724   10.7961 C   0  0  0  0  0  0  0  0  0  0  0  0
   -0.2668    0.5272   10.0818 C   0  0  0  0  0  0  0  0  0  0  0  0
   -0.3438   -0.6388    9.1219 C   0  0  0  0  0  0  0  0  0  0  0  0
    1.0119   -1.1794    8.7793 C   0  0  0  0  0  0  0  0  0  0  0  0
    2.1557   -0.5521    9.1323 C   0  0  0  0  0  0  0  0  0  0  0  0
    3.4141   -0.9626    8.9582 C   0  0  0  0  0  0  0  0  0  0  0  0
    3.5970   -2.1829    8.3301 C   0  0  0  0  0  0  0  0  0  0  0  0
    2.4674   -2.9051    7.9226 C   0  0  0  0  0  0  0  0  0  0  0  0
    1.1837   -2.4061    8.1470 C   0  0  0  0  0  0  0  0  0  0  0  0
    4.8925   -2.6738    8.1135 O   0  0  0  0  0  0  0  0  0  0  0  0
    4.3001    0.0134    9.5052 O   0  0  0  0  0  0  0  0  0  0  0  0
    1.2656   -0.7659   11.2789 O   0  0  0  0  0  0  0  0  0  0  0  0
    2.8487    0.6338   13.8758 C   0  0  0  0  0  0  0  0  0  0  0  0
    2.1618    0.7134   15.0567 C   0  0  0  0  0  0  0  0  0  0  0  0
    2.7740    0.3397   16.2245 C   0  0  0  0  0  0  0  0  0  0  0  0
    4.0720   -0.1132   16.2206 C   0  0  0  0  0  0  0  0  0  0  0  0
    4.7600   -0.1928   15.0371 C   0  0  0  0  0  0  0  0  0  0  0  0
    4.1735    0.1736   13.8480 C   0  0  0  0  0  0  0  0  0  0  0  0
    4.5753    0.2009   12.5797 N   0  0  0  0  0  0  0  0  0  0  0  0
  1  2  1  0
  2  3  1  0
  3  4  1  0
  4  5  1  0
  5  6  1  0
  6  7  1  0
  7  8  1  0
  8  9  1  0
  9 10  1  0
 10 11  2  0
 11 12  1  0
 12 13  1  0
 13 14  1  0
 14 15  1  0
 15 16  1  0
 16 17  2  0
 17 18  1  0
 18 19  2  0
 19 20  1  0
 20 21  2  0
 19 22  1  0
 18 23  1  0
 13 24  1  0
 11 25  1  0
 25 26  2  0
 26 27  1  0
 27 28  2  0
 28 29  1  0
 29 30  2  0
 30 31  1  0
  3  1  1  0
 14  5  1  0
 13  8  1  0
 17  8  1  0
 23  9  1  0
 31 10  1  0
 21 16  1  0
 30 25  1  0
M  END
$$$$
