
     RDKit          3D

 31 38  0  0  0  0  0  0  0  0999 V2000
    0.6760    2.9834    4.7857 C   0  0  0  0  0  0  0  0  0  0  0  0
   -0.3274    2.0118    4.3285 C   0  0  0  0  0  0  0  0  0  0  0  0
    0.4565    1.7210    5.5859 C   0  0  0  0  0  0  0  0  0  0  0  0
   -0.3799    1.7767    6.8727 C   0  0  0  0  0  0  0  0  0  0  0  0
    0.4702    1.5464    8.0092 N   0  0  0  0  0  0  0  0  0  0  0  0
    1.8135    1.1596    7.5723 C   0  0  0  0  0  0  0  0  0  0  0  0
    2.7080    1.1314    8.7609 C   0  0  0  0  0  0  0  0  0  0  0  0
    2.1423    0.2884    9.8541 C   0  0  0  0  0  0  0  0  0  0  0  0
    3.0388    0.2669   11.0475 C   0  0  0  0  0  0  0  0  0  0  0  0
    2.3036    0.2967   12.2926 C   0  0  0  0  0  0  0  0  0  0  0  0
    1.0499    0.8583   12.3863 C   0  0  0  0  0  0  0  0  0  0  0  0
    0.4251    1.4411   11.1311 C   0  0  0  0  0  0  0  0  0  0  0  0
    0.6608    0.4072   10.1099 C   0  0  0  0  0  0  0  0  0  0  0  0
   -0.0460    0.4196    8.8185 C   0  0  0  0  0  0  0  0  0  0  0  0
    0.1301   -0.8773    8.0610 C   0  0  0  0  0  0  0  0  0  0  0  0
    1.3112   -1.6610    8.5492 C   0  0  0  0  0  0  0  0  0  0  0  0
    2.2137   -1.1521    9.4169 C   0  0  0  0  0  0  0  0  0  0  0  0
    3.2558   -1.7647    9.9835 C   0  0  0  0  0  0  0  0  0  0  0  0
    3.4641   -3.0919    9.6488 C   0  0  0  0  0  0  0  0  0  0  0  0
    2.5807   -3.7052    8.7503 C   0  0  0  0  0  0  0  0  0  0  0  0
    1.5110   -2.9937    8.2054 C   0  0  0  0  0  0  0  0  0  0  0  0
    4.5412   -3.7958   10.2060 O   0  0  0  0  0  0  0  0  0  0  0  0
    3.9211   -0.8441   10.8477 O   0  0  0  0  0  0  0  0  0  0  0  0
    0.3222   -0.8428   10.7483 O   0  0  0  0  0  0  0  0  0  0  0  0
    0.6000    0.7604   13.6743 C   0  0  0  0  0  0  0  0  0  0  0  0
   -0.5607    1.1508   14.2850 C   0  0  0  0  0  0  0  0  0  0  0  0
   -0.7381    0.9103   15.6226 C   0  0  0  0  0  0  0  0  0  0  0  0
    0.2397    0.2815   16.3564 C   0  0  0  0  0  0  0  0  0  0  0  0
    1.4026   -0.1095   15.7441 C   0  0  0  0  0  0  0  0  0  0  0  0
    1.6106    0.1164   14.4032 C   0  0  0  0  0  0  0  0  0  0  0  0
    2.6037   -0.1448   13.5568 N   0  0  0  0  0  0  0  0  0  0  0  0
  1  2  1  0
  2  3  1  0
  3  4  1  0
  4  5  1  0
  5  6  1  0
  6  7  1  0
  7  8  1  0
  8  9  1  0
  9 10  1  0
 10 11  2  0
 11 12  1  0
 12 13  1  0
 13 14  1  0
 14 15  1  0
 15 16  1  0
 16 17  2  0
 17 18  1  0
 18 19  2  0
 19 20  1  0
 20 21  2  0
 19 22  1  0
 18 23  1  0
 13 24  1  0
 11 25  1  0
 25 26  2  0
 26 27  1  0
 27 28  2  0
 28 29  1  0
 29 30  2  0
 30 31  1  0
  3  1  1  0
 14  5  1  0
 13  8  1  0
 17  8  1  0
 23  9  1  0
 31 10  1  0
 21 16  1  0
 30 25  1  0
M  END
$$$$
