
     RDKit          3D

 31 38  0  0  0  0  0  0  0  0999 V2000
   -1.9492    3.6212    5.5276 C   0  0  0  0  0  0  0  0  0  0  0  0
   -0.5121    3.9117    5.6297 C   0  0  0  0  0  0  0  0  0  0  0  0
   -1.1689    3.0715    6.6987 C   0  0  0  0  0  0  0  0  0  0  0  0
   -0.7338    1.5987    6.6935 C   0  0  0  0  0  0  0  0  0  0  0  0
    0.3791    1.4228    7.5867 N   0  0  0  0  0  0  0  0  0  0  0  0
    1.5172    0.8365    6.8753 C   0  0  0  0  0  0  0  0  0  0  0  0
    2.7016    0.8614    7.7755 C   0  0  0  0  0  0  0  0  0  0  0  0
    2.4019    0.2333    9.0951 C   0  0  0  0  0  0  0  0  0  0  0  0
    3.5902    0.2651    9.9981 C   0  0  0  0  0  0  0  0  0  0  0  0
    3.2330    0.5354   11.3732 C   0  0  0  0  0  0  0  0  0  0  0  0
    2.0982    1.2402   11.7073 C   0  0  0  0  0  0  0  0  0  0  0  0
    1.1936    1.7233   10.5876 C   0  0  0  0  0  0  0  0  0  0  0  0
    1.0620    0.5475    9.7115 C   0  0  0  0  0  0  0  0  0  0  0  0
    0.0277    0.4732    8.6664 C   0  0  0  0  0  0  0  0  0  0  0  0
   -0.1069   -0.9214    8.0974 C   0  0  0  0  0  0  0  0  0  0  0  0
    1.1036   -1.7626    8.3707 C   0  0  0  0  0  0  0  0  0  0  0  0
    2.2455   -1.2503    8.8807 C   0  0  0  0  0  0  0  0  0  0  0  0
    3.3569   -1.8973    9.2391 C   0  0  0  0  0  0  0  0  0  0  0  0
    3.3681   -3.2713    9.0689 C   0  0  0  0  0  0  0  0  0  0  0  0
    2.2285   -3.8925    8.5405 C   0  0  0  0  0  0  0  0  0  0  0  0
    1.1038   -3.1422    8.1949 C   0  0  0  0  0  0  0  0  0  0  0  0
    4.5038   -4.0133    9.4232 O   0  0  0  0  0  0  0  0  0  0  0  0
    4.3001   -0.9534    9.7453 O   0  0  0  0  0  0  0  0  0  0  0  0
    0.8245   -0.5651   10.6004 O   0  0  0  0  0  0  0  0  0  0  0  0
    2.0171    1.3584   13.0676 C   0  0  0  0  0  0  0  0  0  0  0  0
    1.1024    1.9502   13.8957 C   0  0  0  0  0  0  0  0  0  0  0  0
    1.2859    1.9040   15.2531 C   0  0  0  0  0  0  0  0  0  0  0  0
    2.3809    1.2695   15.7902 C   0  0  0  0  0  0  0  0  0  0  0  0
    3.2972    0.6766   14.9601 C   0  0  0  0  0  0  0  0  0  0  0  0
    3.1411    0.7046   13.5937 C   0  0  0  0  0  0  0  0  0  0  0  0
    3.8392    0.2287   12.5656 N   0  0  0  0  0  0  0  0  0  0  0  0
  1  2  1  0
  2  3  1  0
  3  4  1  0
  4  5  1  0
  5  6  1  0
  6  7  1  0
  7  8  1  0
  8  9  1  0
  9 10  1  0
 10 11  2  0
 11 12  1  0
 12 13  1  0
 13 14  1  0
 14 15  1  0
 15 16  1  0
 16 17  2  0
 17 18  1  0
 18 19  2  0
 19 20  1  0
 20 21  2  0
 19 22  1  0
 18 23  1  0
 13 24  1  0
 11 25  1  0
 25 26  2  0
 26 27  1  0
 27 28  2  0
 28 29  1  0
 29 30  2  0
 30 31  1  0
  3  1  1  0
 14  5  1  0
 13  8  1  0
 17  8  1  0
 23  9  1  0
 31 10  1  0
 21 16  1  0
 30 25  1  0
M  END
$$$$
