
     RDKit          3D

 31 38  0  0  0  0  0  0  0  0999 V2000
   -0.6855    5.0447    7.6947 C   0  0  0  0  0  0  0  0  0  0  0  0
    0.6566    4.5131    7.4186 C   0  0  0  0  0  0  0  0  0  0  0  0
   -0.1960    3.8440    8.4700 C   0  0  0  0  0  0  0  0  0  0  0  0
   -0.6850    2.4413    8.0805 C   0  0  0  0  0  0  0  0  0  0  0  0
   -0.1706    1.4762    9.0140 N   0  0  0  0  0  0  0  0  0  0  0  0
    1.2609    1.6925    9.2355 C   0  0  0  0  0  0  0  0  0  0  0  0
    1.7052    0.8138   10.3509 C   0  0  0  0  0  0  0  0  0  0  0  0
    1.3195   -0.6083   10.1170 C   0  0  0  0  0  0  0  0  0  0  0  0
    1.7613   -1.4864   11.2405 C   0  0  0  0  0  0  0  0  0  0  0  0
    0.7879   -2.5070   11.5606 C   0  0  0  0  0  0  0  0  0  0  0  0
   -0.5553   -2.3391   11.3084 C   0  0  0  0  0  0  0  0  0  0  0  0
   -1.0101   -1.0463   10.6545 C   0  0  0  0  0  0  0  0  0  0  0  0
   -0.0554   -0.8577    9.5499 C   0  0  0  0  0  0  0  0  0  0  0  0
   -0.3061    0.1075    8.4667 C   0  0  0  0  0  0  0  0  0  0  0  0
    0.6479   -0.0771    7.3081 C   0  0  0  0  0  0  0  0  0  0  0  0
    1.8740   -0.8444    7.7023 C   0  0  0  0  0  0  0  0  0  0  0  0
    2.1644   -1.1411    8.9885 C   0  0  0  0  0  0  0  0  0  0  0  0
    3.1727   -1.8767    9.4622 C   0  0  0  0  0  0  0  0  0  0  0  0
    4.0528   -2.4096    8.5358 C   0  0  0  0  0  0  0  0  0  0  0  0
    3.8352   -2.1511    7.1758 C   0  0  0  0  0  0  0  0  0  0  0  0
    2.7520   -1.3742    6.7628 C   0  0  0  0  0  0  0  0  0  0  0  0
    5.1354   -3.1909    8.9644 O   0  0  0  0  0  0  0  0  0  0  0  0
    3.0736   -1.9379   10.8847 O   0  0  0  0  0  0  0  0  0  0  0  0
    0.0624   -2.1529    8.9229 O   0  0  0  0  0  0  0  0  0  0  0  0
   -1.2405   -3.4484   11.7217 C   0  0  0  0  0  0  0  0  0  0  0  0
   -2.5669   -3.7842   11.6957 C   0  0  0  0  0  0  0  0  0  0  0  0
   -2.9697   -4.9975   12.1895 C   0  0  0  0  0  0  0  0  0  0  0  0
   -2.0537   -5.8798   12.7116 C   0  0  0  0  0  0  0  0  0  0  0  0
   -0.7247   -5.5430   12.7375 C   0  0  0  0  0  0  0  0  0  0  0  0
   -0.2884   -4.3334   12.2487 C   0  0  0  0  0  0  0  0  0  0  0  0
    0.9009   -3.7469   12.1380 N   0  0  0  0  0  0  0  0  0  0  0  0
  1  2  1  0
  2  3  1  0
  3  4  1  0
  4  5  1  0
  5  6  1  0
  6  7  1  0
  7  8  1  0
  8  9  1  0
  9 10  1  0
 10 11  2  0
 11 12  1  0
 12 13  1  0
 13 14  1  0
 14 15  1  0
 15 16  1  0
 16 17  2  0
 17 18  1  0
 18 19  2  0
 19 20  1  0
 20 21  2  0
 19 22  1  0
 18 23  1  0
 13 24  1  0
 11 25  1  0
 25 26  2  0
 26 27  1  0
 27 28  2  0
 28 29  1  0
 29 30  2  0
 30 31  1  0
  3  1  1  0
 14  5  1  0
 13  8  1  0
 17  8  1  0
 23  9  1  0
 31 10  1  0
 21 16  1  0
 30 25  1  0
M  END
$$$$
