
     RDKit          3D

 31 38  0  0  0  0  0  0  0  0999 V2000
   -0.2388    3.8907    5.7791 C   0  0  0  0  0  0  0  0  0  0  0  0
   -1.5397    3.2657    5.5017 C   0  0  0  0  0  0  0  0  0  0  0  0
   -0.4919    2.4779    6.2509 C   0  0  0  0  0  0  0  0  0  0  0  0
   -0.8353    2.2230    7.7258 C   0  0  0  0  0  0  0  0  0  0  0  0
    0.3505    1.8222    8.4335 N   0  0  0  0  0  0  0  0  0  0  0  0
    1.4222    1.4952    7.4903 C   0  0  0  0  0  0  0  0  0  0  0  0
    2.6800    1.2864    8.2571 C   0  0  0  0  0  0  0  0  0  0  0  0
    2.4948    0.2952    9.3567 C   0  0  0  0  0  0  0  0  0  0  0  0
    3.7567    0.0922   10.1280 C   0  0  0  0  0  0  0  0  0  0  0  0
    3.5200   -0.0569   11.5469 C   0  0  0  0  0  0  0  0  0  0  0  0
    2.4192    0.4930   12.1647 C   0  0  0  0  0  0  0  0  0  0  0  0
    1.4217    1.2584   11.3134 C   0  0  0  0  0  0  0  0  0  0  0  0
    1.2135    0.3847   10.1469 C   0  0  0  0  0  0  0  0  0  0  0  0
    0.0926    0.5919    9.2151 C   0  0  0  0  0  0  0  0  0  0  0  0
   -0.0922   -0.5803    8.2779 C   0  0  0  0  0  0  0  0  0  0  0  0
    1.1365   -1.4352    8.1928 C   0  0  0  0  0  0  0  0  0  0  0  0
    2.3187   -1.0656    8.7333 C   0  0  0  0  0  0  0  0  0  0  0  0
    3.4562   -1.7618    8.7942 C   0  0  0  0  0  0  0  0  0  0  0  0
    3.4512   -3.0265    8.2309 C   0  0  0  0  0  0  0  0  0  0  0  0
    2.2695   -3.4949    7.6410 C   0  0  0  0  0  0  0  0  0  0  0  0
    1.1200   -2.7039    7.6235 C   0  0  0  0  0  0  0  0  0  0  0  0
    4.6124   -3.8119    8.2581 O   0  0  0  0  0  0  0  0  0  0  0  0
    4.4408   -0.9830    9.4732 O   0  0  0  0  0  0  0  0  0  0  0  0
    1.0525   -0.9435   10.6898 O   0  0  0  0  0  0  0  0  0  0  0  0
    2.4561    0.2093   13.5023 C   0  0  0  0  0  0  0  0  0  0  0  0
    1.6170    0.5130   14.5398 C   0  0  0  0  0  0  0  0  0  0  0  0
    1.9171    0.0793   15.8047 C   0  0  0  0  0  0  0  0  0  0  0  0
    3.0537   -0.6572   16.0409 C   0  0  0  0  0  0  0  0  0  0  0  0
    3.8942   -0.9614   15.0011 C   0  0  0  0  0  0  0  0  0  0  0  0
    3.6206   -0.5417   13.7200 C   0  0  0  0  0  0  0  0  0  0  0  0
    4.2267   -0.6818   12.5436 N   0  0  0  0  0  0  0  0  0  0  0  0
  1  2  1  0
  2  3  1  0
  3  4  1  0
  4  5  1  0
  5  6  1  0
  6  7  1  0
  7  8  1  0
  8  9  1  0
  9 10  1  0
 10 11  2  0
 11 12  1  0
 12 13  1  0
 13 14  1  0
 14 15  1  0
 15 16  1  0
 16 17  2  0
 17 18  1  0
 18 19  2  0
 19 20  1  0
 20 21  2  0
 19 22  1  0
 18 23  1  0
 13 24  1  0
 11 25  1  0
 25 26  2  0
 26 27  1  0
 27 28  2  0
 28 29  1  0
 29 30  2  0
 30 31  1  0
  3  1  1  0
 14  5  1  0
 13  8  1  0
 17  8  1  0
 23  9  1  0
 31 10  1  0
 21 16  1  0
 30 25  1  0
M  END
$$$$
