
     RDKit          3D

 31 38  0  0  0  0  0  0  0  0999 V2000
   -4.1146    2.6056    9.1768 C   0  0  0  0  0  0  0  0  0  0  0  0
   -3.3748    3.7281    8.5830 C   0  0  0  0  0  0  0  0  0  0  0  0
   -2.6051    2.6067    9.2386 C   0  0  0  0  0  0  0  0  0  0  0  0
   -1.8070    1.7365    8.2566 C   0  0  0  0  0  0  0  0  0  0  0  0
   -0.4694    1.5554    8.7519 N   0  0  0  0  0  0  0  0  0  0  0  0
    0.4534    1.2909    7.6458 C   0  0  0  0  0  0  0  0  0  0  0  0
    1.8442    1.3137    8.1741 C   0  0  0  0  0  0  0  0  0  0  0  0
    2.0013    0.4046    9.3465 C   0  0  0  0  0  0  0  0  0  0  0  0
    3.3959    0.4341    9.8781 C   0  0  0  0  0  0  0  0  0  0  0  0
    3.4388    0.3774   11.3226 C   0  0  0  0  0  0  0  0  0  0  0  0
    2.3979    0.8304   12.1018 C   0  0  0  0  0  0  0  0  0  0  0  0
    1.1658    1.3840   11.4083 C   0  0  0  0  0  0  0  0  0  0  0  0
    0.8813    0.3941   10.3564 C   0  0  0  0  0  0  0  0  0  0  0  0
   -0.4052    0.3734    9.6407 C   0  0  0  0  0  0  0  0  0  0  0  0
   -0.5833   -0.8888    8.8272 C   0  0  0  0  0  0  0  0  0  0  0  0
    0.7204   -1.5808    8.5647 C   0  0  0  0  0  0  0  0  0  0  0  0
    1.9144   -1.0158    8.8504 C   0  0  0  0  0  0  0  0  0  0  0  0
    3.1326   -1.5505    8.7386 C   0  0  0  0  0  0  0  0  0  0  0  0
    3.2091   -2.8487    8.2635 C   0  0  0  0  0  0  0  0  0  0  0  0
    2.0210   -3.5155    7.9352 C   0  0  0  0  0  0  0  0  0  0  0  0
    0.7853   -2.8850    8.0860 C   0  0  0  0  0  0  0  0  0  0  0  0
    4.4572   -3.4712    8.1195 O   0  0  0  0  0  0  0  0  0  0  0  0
    4.0999   -0.5951    9.1726 O   0  0  0  0  0  0  0  0  0  0  0  0
    1.0115   -0.8924   10.9988 O   0  0  0  0  0  0  0  0  0  0  0  0
    2.7120    0.6695   13.4233 C   0  0  0  0  0  0  0  0  0  0  0  0
    2.0358    0.9493   14.5796 C   0  0  0  0  0  0  0  0  0  0  0  0
    2.6148    0.6681   15.7896 C   0  0  0  0  0  0  0  0  0  0  0  0
    3.8690    0.1085   15.8522 C   0  0  0  0  0  0  0  0  0  0  0  0
    4.5463   -0.1717   14.6933 C   0  0  0  0  0  0  0  0  0  0  0  0
    3.9922    0.0976   13.4633 C   0  0  0  0  0  0  0  0  0  0  0  0
    4.3935   -0.0627   12.2047 N   0  0  0  0  0  0  0  0  0  0  0  0
  1  2  1  0
  2  3  1  0
  3  4  1  0
  4  5  1  0
  5  6  1  0
  6  7  1  0
  7  8  1  0
  8  9  1  0
  9 10  1  0
 10 11  2  0
 11 12  1  0
 12 13  1  0
 13 14  1  0
 14 15  1  0
 15 16  1  0
 16 17  2  0
 17 18  1  0
 18 19  2  0
 19 20  1  0
 20 21  2  0
 19 22  1  0
 18 23  1  0
 13 24  1  0
 11 25  1  0
 25 26  2  0
 26 27  1  0
 27 28  2  0
 28 29  1  0
 29 30  2  0
 30 31  1  0
  3  1  1  0
 14  5  1  0
 13  8  1  0
 17  8  1  0
 23  9  1  0
 31 10  1  0
 21 16  1  0
 30 25  1  0
M  END
$$$$
