
     RDKit          3D

 31 38  0  0  0  0  0  0  0  0999 V2000
    0.4127    3.1833    4.5301 C   0  0  0  0  0  0  0  0  0  0  0  0
    0.8335    1.7826    4.3854 C   0  0  0  0  0  0  0  0  0  0  0  0
    0.8779    2.4251    5.7512 C   0  0  0  0  0  0  0  0  0  0  0  0
   -0.1597    1.8708    6.7384 C   0  0  0  0  0  0  0  0  0  0  0  0
    0.4811    1.5657    7.9889 N   0  0  0  0  0  0  0  0  0  0  0  0
    1.9046    1.2918    7.7799 C   0  0  0  0  0  0  0  0  0  0  0  0
    2.5657    1.1841    9.1084 C   0  0  0  0  0  0  0  0  0  0  0  0
    1.8670    0.2060    9.9920 C   0  0  0  0  0  0  0  0  0  0  0  0
    2.5289    0.1045   11.3262 C   0  0  0  0  0  0  0  0  0  0  0  0
    1.5776   -0.0305   12.4070 C   0  0  0  0  0  0  0  0  0  0  0  0
    0.2932    0.4570   12.3137 C   0  0  0  0  0  0  0  0  0  0  0  0
   -0.1285    1.1356   11.0224 C   0  0  0  0  0  0  0  0  0  0  0  0
    0.3592    0.2256    9.9729 C   0  0  0  0  0  0  0  0  0  0  0  0
   -0.0981    0.3374    8.5779 C   0  0  0  0  0  0  0  0  0  0  0  0
    0.3004   -0.8640    7.7506 C   0  0  0  0  0  0  0  0  0  0  0  0
    1.4218   -1.6358    8.3785 C   0  0  0  0  0  0  0  0  0  0  0  0
    2.1138   -1.1763    9.4445 C   0  0  0  0  0  0  0  0  0  0  0  0
    3.0729   -1.7930   10.1388 C   0  0  0  0  0  0  0  0  0  0  0  0
    3.4276   -3.0667    9.7279 C   0  0  0  0  0  0  0  0  0  0  0  0
    2.7670   -3.6258    8.6257 C   0  0  0  0  0  0  0  0  0  0  0  0
    1.7701   -2.9145    7.9567 C   0  0  0  0  0  0  0  0  0  0  0  0
    4.4289   -3.7715   10.4111 O   0  0  0  0  0  0  0  0  0  0  0  0
    3.5053   -0.9357   11.1947 O   0  0  0  0  0  0  0  0  0  0  0  0
   -0.0062   -1.0987   10.4171 O   0  0  0  0  0  0  0  0  0  0  0  0
   -0.3777    0.2045   13.4786 C   0  0  0  0  0  0  0  0  0  0  0  0
   -1.6542    0.4728   13.8924 C   0  0  0  0  0  0  0  0  0  0  0  0
   -2.0573    0.0868   15.1441 C   0  0  0  0  0  0  0  0  0  0  0  0
   -1.1907   -0.5665   15.9881 C   0  0  0  0  0  0  0  0  0  0  0  0
    0.0884   -0.8352   15.5732 C   0  0  0  0  0  0  0  0  0  0  0  0
    0.5231   -0.4618   14.3226 C   0  0  0  0  0  0  0  0  0  0  0  0
    1.6697   -0.5854   13.6588 N   0  0  0  0  0  0  0  0  0  0  0  0
  1  2  1  0
  2  3  1  0
  3  4  1  0
  4  5  1  0
  5  6  1  0
  6  7  1  0
  7  8  1  0
  8  9  1  0
  9 10  1  0
 10 11  2  0
 11 12  1  0
 12 13  1  0
 13 14  1  0
 14 15  1  0
 15 16  1  0
 16 17  2  0
 17 18  1  0
 18 19  2  0
 19 20  1  0
 20 21  2  0
 19 22  1  0
 18 23  1  0
 13 24  1  0
 11 25  1  0
 25 26  2  0
 26 27  1  0
 27 28  2  0
 28 29  1  0
 29 30  2  0
 30 31  1  0
  3  1  1  0
 14  5  1  0
 13  8  1  0
 17  8  1  0
 23  9  1  0
 31 10  1  0
 21 16  1  0
 30 25  1  0
M  END
$$$$
