
     RDKit          3D

 31 38  0  0  0  0  0  0  0  0999 V2000
   -0.6685    3.7104    5.2335 C   0  0  0  0  0  0  0  0  0  0  0  0
   -1.5218    2.5512    4.9364 C   0  0  0  0  0  0  0  0  0  0  0  0
   -0.4070    2.4031    5.9440 C   0  0  0  0  0  0  0  0  0  0  0  0
   -0.8899    2.2182    7.3900 C   0  0  0  0  0  0  0  0  0  0  0  0
    0.2406    1.9946    8.2499 N   0  0  0  0  0  0  0  0  0  0  0  0
    1.4379    1.7102    7.4558 C   0  0  0  0  0  0  0  0  0  0  0  0
    2.6150    1.6888    8.3656 C   0  0  0  0  0  0  0  0  0  0  0  0
    2.4005    0.7681    9.5197 C   0  0  0  0  0  0  0  0  0  0  0  0
    3.5806    0.7532   10.4338 C   0  0  0  0  0  0  0  0  0  0  0  0
    3.2001    0.6862   11.8275 C   0  0  0  0  0  0  0  0  0  0  0  0
    1.9899    1.1646   12.2772 C   0  0  0  0  0  0  0  0  0  0  0  0
    1.0276    1.7586   11.2639 C   0  0  0  0  0  0  0  0  0  0  0  0
    1.0354    0.7841   10.1604 C   0  0  0  0  0  0  0  0  0  0  0  0
    0.0126    0.8057    9.1016 C   0  0  0  0  0  0  0  0  0  0  0  0
    0.0456   -0.4456    8.2532 C   0  0  0  0  0  0  0  0  0  0  0  0
    1.3507   -1.1739    8.3706 C   0  0  0  0  0  0  0  0  0  0  0  0
    2.4244   -0.6460    8.9991 C   0  0  0  0  0  0  0  0  0  0  0  0
    3.6079   -1.2155    9.2381 C   0  0  0  0  0  0  0  0  0  0  0  0
    3.7852   -2.5124    8.7868 C   0  0  0  0  0  0  0  0  0  0  0  0
    2.7268   -3.1419    8.1179 C   0  0  0  0  0  0  0  0  0  0  0  0
    1.5176   -2.4764    7.9125 C   0  0  0  0  0  0  0  0  0  0  0  0
    5.0044   -3.1703    9.0026 O   0  0  0  0  0  0  0  0  0  0  0  0
    4.4321   -0.2917    9.9483 O   0  0  0  0  0  0  0  0  0  0  0  0
    0.9393   -0.5097   10.7941 O   0  0  0  0  0  0  0  0  0  0  0  0
    1.9018    0.9862   13.6305 C   0  0  0  0  0  0  0  0  0  0  0  0
    0.9262    1.2784   14.5445 C   0  0  0  0  0  0  0  0  0  0  0  0
    1.1207    0.9726   15.8662 C   0  0  0  0  0  0  0  0  0  0  0  0
    2.2874    0.3761   16.2823 C   0  0  0  0  0  0  0  0  0  0  0  0
    3.2648    0.0834   15.3662 C   0  0  0  0  0  0  0  0  0  0  0  0
    3.0995    0.3767   14.0324 C   0  0  0  0  0  0  0  0  0  0  0  0
    3.8451    0.2127   12.9424 N   0  0  0  0  0  0  0  0  0  0  0  0
  1  2  1  0
  2  3  1  0
  3  4  1  0
  4  5  1  0
  5  6  1  0
  6  7  1  0
  7  8  1  0
  8  9  1  0
  9 10  1  0
 10 11  2  0
 11 12  1  0
 12 13  1  0
 13 14  1  0
 14 15  1  0
 15 16  1  0
 16 17  2  0
 17 18  1  0
 18 19  2  0
 19 20  1  0
 20 21  2  0
 19 22  1  0
 18 23  1  0
 13 24  1  0
 11 25  1  0
 25 26  2  0
 26 27  1  0
 27 28  2  0
 28 29  1  0
 29 30  2  0
 30 31  1  0
  3  1  1  0
 14  5  1  0
 13  8  1  0
 17  8  1  0
 23  9  1  0
 31 10  1  0
 21 16  1  0
 30 25  1  0
M  END
$$$$
