
     RDKit          3D

 31 38  0  0  0  0  0  0  0  0999 V2000
   -2.4404    3.4219    6.2944 C   0  0  0  0  0  0  0  0  0  0  0  0
   -1.2485    3.9360    5.6051 C   0  0  0  0  0  0  0  0  0  0  0  0
   -1.0724    3.0811    6.8372 C   0  0  0  0  0  0  0  0  0  0  0  0
   -0.4712    1.6958    6.5580 C   0  0  0  0  0  0  0  0  0  0  0  0
    0.5867    1.4327    7.4957 N   0  0  0  0  0  0  0  0  0  0  0  0
    1.7113    0.7759    6.8258 C   0  0  0  0  0  0  0  0  0  0  0  0
    2.8540    0.7080    7.7762 C   0  0  0  0  0  0  0  0  0  0  0  0
    2.4539    0.0881    9.0729 C   0  0  0  0  0  0  0  0  0  0  0  0
    3.6008    0.0269   10.0265 C   0  0  0  0  0  0  0  0  0  0  0  0
    3.2033    0.3066   11.3886 C   0  0  0  0  0  0  0  0  0  0  0  0
    2.1068    1.0855   11.6834 C   0  0  0  0  0  0  0  0  0  0  0  0
    1.2878    1.6429   10.5327 C   0  0  0  0  0  0  0  0  0  0  0  0
    1.1133    0.4888    9.6355 C   0  0  0  0  0  0  0  0  0  0  0  0
    0.1231    0.4984    8.5460 C   0  0  0  0  0  0  0  0  0  0  0  0
   -0.0830   -0.8771    7.9525 C   0  0  0  0  0  0  0  0  0  0  0  0
    1.0530   -1.8039    8.2658 C   0  0  0  0  0  0  0  0  0  0  0  0
    2.2042   -1.3784    8.8314 C   0  0  0  0  0  0  0  0  0  0  0  0
    3.2512   -2.1055    9.2283 C   0  0  0  0  0  0  0  0  0  0  0  0
    3.1743   -3.4750    9.0397 C   0  0  0  0  0  0  0  0  0  0  0  0
    2.0185   -4.0091    8.4543 C   0  0  0  0  0  0  0  0  0  0  0  0
    0.9649   -3.1782    8.0711 C   0  0  0  0  0  0  0  0  0  0  0  0
    4.2391   -4.2986    9.4320 O   0  0  0  0  0  0  0  0  0  0  0  0
    4.2347   -1.2356    9.7875 O   0  0  0  0  0  0  0  0  0  0  0  0
    0.7603   -0.6141   10.4979 O   0  0  0  0  0  0  0  0  0  0  0  0
    1.9746    1.1943   13.0404 C   0  0  0  0  0  0  0  0  0  0  0  0
    1.0678    1.8397   13.8366 C   0  0  0  0  0  0  0  0  0  0  0  0
    1.1880    1.7661   15.1999 C   0  0  0  0  0  0  0  0  0  0  0  0
    2.2117    1.0507   15.7747 C   0  0  0  0  0  0  0  0  0  0  0  0
    3.1201    0.4041   14.9765 C   0  0  0  0  0  0  0  0  0  0  0  0
    3.0263    0.4578   13.6052 C   0  0  0  0  0  0  0  0  0  0  0  0
    3.7340   -0.0547   12.6015 N   0  0  0  0  0  0  0  0  0  0  0  0
  1  2  1  0
  2  3  1  0
  3  4  1  0
  4  5  1  0
  5  6  1  0
  6  7  1  0
  7  8  1  0
  8  9  1  0
  9 10  1  0
 10 11  2  0
 11 12  1  0
 12 13  1  0
 13 14  1  0
 14 15  1  0
 15 16  1  0
 16 17  2  0
 17 18  1  0
 18 19  2  0
 19 20  1  0
 20 21  2  0
 19 22  1  0
 18 23  1  0
 13 24  1  0
 11 25  1  0
 25 26  2  0
 26 27  1  0
 27 28  2  0
 28 29  1  0
 29 30  2  0
 30 31  1  0
  3  1  1  0
 14  5  1  0
 13  8  1  0
 17  8  1  0
 23  9  1  0
 31 10  1  0
 21 16  1  0
 30 25  1  0
M  END
$$$$
