
     RDKit          3D

 31 38  0  0  0  0  0  0  0  0999 V2000
   -0.9638    3.5703    5.1006 C   0  0  0  0  0  0  0  0  0  0  0  0
   -1.5212    2.2201    4.9396 C   0  0  0  0  0  0  0  0  0  0  0  0
   -0.4198    2.4440    5.9479 C   0  0  0  0  0  0  0  0  0  0  0  0
   -0.8717    2.3104    7.4095 C   0  0  0  0  0  0  0  0  0  0  0  0
    0.2670    2.0297    8.2413 N   0  0  0  0  0  0  0  0  0  0  0  0
    1.4174    1.6461    7.4200 C   0  0  0  0  0  0  0  0  0  0  0  0
    2.6177    1.5649    8.2953 C   0  0  0  0  0  0  0  0  0  0  0  0
    2.3770    0.6876    9.4777 C   0  0  0  0  0  0  0  0  0  0  0  0
    3.5809    0.6129   10.3572 C   0  0  0  0  0  0  0  0  0  0  0  0
    3.2398    0.6038   11.7626 C   0  0  0  0  0  0  0  0  0  0  0  0
    2.0790    1.1739   12.2354 C   0  0  0  0  0  0  0  0  0  0  0  0
    1.1285    1.8090   11.2360 C   0  0  0  0  0  0  0  0  0  0  0  0
    1.0364    0.8114   10.1573 C   0  0  0  0  0  0  0  0  0  0  0  0
   -0.0147    0.8789    9.1286 C   0  0  0  0  0  0  0  0  0  0  0  0
   -0.0925   -0.3907    8.3108 C   0  0  0  0  0  0  0  0  0  0  0  0
    1.1633   -1.2037    8.4082 C   0  0  0  0  0  0  0  0  0  0  0  0
    2.2891   -0.7363    8.9918 C   0  0  0  0  0  0  0  0  0  0  0  0
    3.4382   -1.3798    9.2104 C   0  0  0  0  0  0  0  0  0  0  0  0
    3.5133   -2.6957    8.7864 C   0  0  0  0  0  0  0  0  0  0  0  0
    2.3947   -3.2664    8.1644 C   0  0  0  0  0  0  0  0  0  0  0  0
    1.2276   -2.5246    7.9778 C   0  0  0  0  0  0  0  0  0  0  0  0
    4.6913   -3.4305    8.9828 O   0  0  0  0  0  0  0  0  0  0  0  0
    4.3443   -0.4987    9.8731 O   0  0  0  0  0  0  0  0  0  0  0  0
    0.8725   -0.4579   10.8254 O   0  0  0  0  0  0  0  0  0  0  0  0
    2.0207    1.0327   13.5947 C   0  0  0  0  0  0  0  0  0  0  0  0
    1.0956    1.4117   14.5291 C   0  0  0  0  0  0  0  0  0  0  0  0
    1.3096    1.1235   15.8518 C   0  0  0  0  0  0  0  0  0  0  0  0
    2.4454    0.4582   16.2484 C   0  0  0  0  0  0  0  0  0  0  0  0
    3.3722    0.0786   15.3117 C   0  0  0  0  0  0  0  0  0  0  0  0
    3.1863    0.3521   13.9765 C   0  0  0  0  0  0  0  0  0  0  0  0
    3.8852    0.1127   12.8697 N   0  0  0  0  0  0  0  0  0  0  0  0
  1  2  1  0
  2  3  1  0
  3  4  1  0
  4  5  1  0
  5  6  1  0
  6  7  1  0
  7  8  1  0
  8  9  1  0
  9 10  1  0
 10 11  2  0
 11 12  1  0
 12 13  1  0
 13 14  1  0
 14 15  1  0
 15 16  1  0
 16 17  2  0
 17 18  1  0
 18 19  2  0
 19 20  1  0
 20 21  2  0
 19 22  1  0
 18 23  1  0
 13 24  1  0
 11 25  1  0
 25 26  2  0
 26 27  1  0
 27 28  2  0
 28 29  1  0
 29 30  2  0
 30 31  1  0
  3  1  1  0
 14  5  1  0
 13  8  1  0
 17  8  1  0
 23  9  1  0
 31 10  1  0
 21 16  1  0
 30 25  1  0
M  END
$$$$
