
     RDKit          3D

 31 38  0  0  0  0  0  0  0  0999 V2000
   -4.7134    1.9853    8.9860 C   0  0  0  0  0  0  0  0  0  0  0  0
   -3.8378    3.1304    8.6999 C   0  0  0  0  0  0  0  0  0  0  0  0
   -3.2362    1.8739    9.2824 C   0  0  0  0  0  0  0  0  0  0  0  0
   -2.3257    1.1070    8.3121 C   0  0  0  0  0  0  0  0  0  0  0  0
   -0.9635    1.1876    8.7655 N   0  0  0  0  0  0  0  0  0  0  0  0
   -0.0409    0.9074    7.6630 C   0  0  0  0  0  0  0  0  0  0  0  0
    1.3446    1.1999    8.1196 C   0  0  0  0  0  0  0  0  0  0  0  0
    1.6641    0.4924    9.3936 C   0  0  0  0  0  0  0  0  0  0  0  0
    3.0526    0.7926    9.8523 C   0  0  0  0  0  0  0  0  0  0  0  0
    3.1409    0.9418   11.2881 C   0  0  0  0  0  0  0  0  0  0  0  0
    2.0652    1.3451   12.0472 C   0  0  0  0  0  0  0  0  0  0  0  0
    0.7475    1.6173   11.3436 C   0  0  0  0  0  0  0  0  0  0  0  0
    0.5844    0.4618   10.4460 C   0  0  0  0  0  0  0  0  0  0  0  0
   -0.7032    0.1604    9.7989 C   0  0  0  0  0  0  0  0  0  0  0  0
   -0.7150   -1.2141    9.1686 C   0  0  0  0  0  0  0  0  0  0  0  0
    0.6690   -1.7433    8.9406 C   0  0  0  0  0  0  0  0  0  0  0  0
    1.7740   -0.9806    9.0943 C   0  0  0  0  0  0  0  0  0  0  0  0
    3.0542   -1.3470    8.9986 C   0  0  0  0  0  0  0  0  0  0  0  0
    3.3083   -2.6741    8.6964 C   0  0  0  0  0  0  0  0  0  0  0  0
    2.2230   -3.5416    8.5139 C   0  0  0  0  0  0  0  0  0  0  0  0
    0.9123   -3.0784    8.6363 C   0  0  0  0  0  0  0  0  0  0  0  0
    4.6301   -3.1268    8.5792 O   0  0  0  0  0  0  0  0  0  0  0  0
    3.8816   -0.2134    9.2577 O   0  0  0  0  0  0  0  0  0  0  0  0
    0.9189   -0.6923   11.2464 O   0  0  0  0  0  0  0  0  0  0  0  0
    2.4338    1.4137   13.3627 C   0  0  0  0  0  0  0  0  0  0  0  0
    1.7541    1.7509   14.5015 C   0  0  0  0  0  0  0  0  0  0  0  0
    2.3994    1.7240   15.7103 C   0  0  0  0  0  0  0  0  0  0  0  0
    3.7234    1.3623   15.7890 C   0  0  0  0  0  0  0  0  0  0  0  0
    4.4042    1.0244   14.6477 C   0  0  0  0  0  0  0  0  0  0  0  0
    3.7848    1.0405   13.4195 C   0  0  0  0  0  0  0  0  0  0  0  0
    4.1724    0.7673   12.1762 N   0  0  0  0  0  0  0  0  0  0  0  0
  1  2  1  0
  2  3  1  0
  3  4  1  0
  4  5  1  0
  5  6  1  0
  6  7  1  0
  7  8  1  0
  8  9  1  0
  9 10  1  0
 10 11  2  0
 11 12  1  0
 12 13  1  0
 13 14  1  0
 14 15  1  0
 15 16  1  0
 16 17  2  0
 17 18  1  0
 18 19  2  0
 19 20  1  0
 20 21  2  0
 19 22  1  0
 18 23  1  0
 13 24  1  0
 11 25  1  0
 25 26  2  0
 26 27  1  0
 27 28  2  0
 28 29  1  0
 29 30  2  0
 30 31  1  0
  3  1  1  0
 14  5  1  0
 13  8  1  0
 17  8  1  0
 23  9  1  0
 31 10  1  0
 21 16  1  0
 30 25  1  0
M  END
$$$$
