
     RDKit          3D

 31 38  0  0  0  0  0  0  0  0999 V2000
   -1.5849    3.5997    5.4729 C   0  0  0  0  0  0  0  0  0  0  0  0
   -0.2340    3.9126    5.9599 C   0  0  0  0  0  0  0  0  0  0  0  0
   -1.0865    2.9374    6.7360 C   0  0  0  0  0  0  0  0  0  0  0  0
   -0.5855    1.4867    6.6826 C   0  0  0  0  0  0  0  0  0  0  0  0
    0.5012    1.3186    7.6090 N   0  0  0  0  0  0  0  0  0  0  0  0
    1.6713    0.7601    6.9280 C   0  0  0  0  0  0  0  0  0  0  0  0
    2.8257    0.7939    7.8660 C   0  0  0  0  0  0  0  0  0  0  0  0
    2.4947    0.1450    9.1680 C   0  0  0  0  0  0  0  0  0  0  0  0
    3.6528    0.1858   10.1091 C   0  0  0  0  0  0  0  0  0  0  0  0
    3.2472    0.4336   11.4750 C   0  0  0  0  0  0  0  0  0  0  0  0
    2.0905    1.1152   11.7805 C   0  0  0  0  0  0  0  0  0  0  0  0
    1.2140    1.5966   10.6379 C   0  0  0  0  0  0  0  0  0  0  0  0
    1.1306    0.4294    9.7445 C   0  0  0  0  0  0  0  0  0  0  0  0
    0.1316    0.3504    8.6659 C   0  0  0  0  0  0  0  0  0  0  0  0
    0.0392   -1.0394    8.0770 C   0  0  0  0  0  0  0  0  0  0  0  0
    1.2545   -1.8634    8.3793 C   0  0  0  0  0  0  0  0  0  0  0  0
    2.3706   -1.3382    8.9317 C   0  0  0  0  0  0  0  0  0  0  0  0
    3.4808   -1.9709    9.3183 C   0  0  0  0  0  0  0  0  0  0  0  0
    3.5210   -3.3423    9.1327 C   0  0  0  0  0  0  0  0  0  0  0  0
    2.4096   -3.9761    8.5608 C   0  0  0  0  0  0  0  0  0  0  0  0
    1.2839   -3.2406    8.1878 C   0  0  0  0  0  0  0  0  0  0  0  0
    4.6573   -4.0695    9.5148 O   0  0  0  0  0  0  0  0  0  0  0  0
    4.3911   -1.0175    9.8653 O   0  0  0  0  0  0  0  0  0  0  0  0
    0.8838   -0.6977   10.6125 O   0  0  0  0  0  0  0  0  0  0  0  0
    1.9639    1.2157   13.1388 C   0  0  0  0  0  0  0  0  0  0  0  0
    1.0132    1.7821   13.9437 C   0  0  0  0  0  0  0  0  0  0  0  0
    1.1539    1.7226   15.3057 C   0  0  0  0  0  0  0  0  0  0  0  0
    2.2419    1.1002   15.8704 C   0  0  0  0  0  0  0  0  0  0  0  0
    3.1943    0.5327   15.0635 C   0  0  0  0  0  0  0  0  0  0  0  0
    3.0815    0.5745   13.6932 C   0  0  0  0  0  0  0  0  0  0  0  0
    3.8201    0.1227   12.6827 N   0  0  0  0  0  0  0  0  0  0  0  0
  1  2  1  0
  2  3  1  0
  3  4  1  0
  4  5  1  0
  5  6  1  0
  6  7  1  0
  7  8  1  0
  8  9  1  0
  9 10  1  0
 10 11  2  0
 11 12  1  0
 12 13  1  0
 13 14  1  0
 14 15  1  0
 15 16  1  0
 16 17  2  0
 17 18  1  0
 18 19  2  0
 19 20  1  0
 20 21  2  0
 19 22  1  0
 18 23  1  0
 13 24  1  0
 11 25  1  0
 25 26  2  0
 26 27  1  0
 27 28  2  0
 28 29  1  0
 29 30  2  0
 30 31  1  0
  3  1  1  0
 14  5  1  0
 13  8  1  0
 17  8  1  0
 23  9  1  0
 31 10  1  0
 21 16  1  0
 30 25  1  0
M  END
$$$$
