
     RDKit          3D

 31 38  0  0  0  0  0  0  0  0999 V2000
    0.1231    4.4718    6.1820 C   0  0  0  0  0  0  0  0  0  0  0  0
    0.4635    3.6185    5.0349 C   0  0  0  0  0  0  0  0  0  0  0  0
    0.7137    3.1040    6.4322 C   0  0  0  0  0  0  0  0  0  0  0  0
   -0.2066    1.9471    6.8481 C   0  0  0  0  0  0  0  0  0  0  0  0
    0.0992    1.5499    8.1958 N   0  0  0  0  0  0  0  0  0  0  0  0
    1.5404    1.6398    8.4403 C   0  0  0  0  0  0  0  0  0  0  0  0
    1.7889    1.4205    9.8907 C   0  0  0  0  0  0  0  0  0  0  0  0
    1.1535    0.1595   10.3723 C   0  0  0  0  0  0  0  0  0  0  0  0
    1.3994   -0.0548   11.8291 C   0  0  0  0  0  0  0  0  0  0  0  0
    0.2475   -0.6036   12.5098 C   0  0  0  0  0  0  0  0  0  0  0  0
   -1.0355   -0.3997   12.0533 C   0  0  0  0  0  0  0  0  0  0  0  0
   -1.2289    0.4103   10.7836 C   0  0  0  0  0  0  0  0  0  0  0  0
   -0.2301   -0.1471    9.8568 C   0  0  0  0  0  0  0  0  0  0  0  0
   -0.2733    0.1337    8.4122 C   0  0  0  0  0  0  0  0  0  0  0  0
    0.6574   -0.7654    7.6299 C   0  0  0  0  0  0  0  0  0  0  0  0
    1.7116   -1.3817    8.4996 C   0  0  0  0  0  0  0  0  0  0  0  0
    1.9120   -1.0006    9.7807 C   0  0  0  0  0  0  0  0  0  0  0  0
    2.7561   -1.5170   10.6768 C   0  0  0  0  0  0  0  0  0  0  0  0
    3.5446   -2.5766   10.2614 C   0  0  0  0  0  0  0  0  0  0  0  0
    3.4103   -3.0390    8.9453 C   0  0  0  0  0  0  0  0  0  0  0  0
    2.4988   -2.4452    8.0713 C   0  0  0  0  0  0  0  0  0  0  0  0
    4.4543   -3.1658   11.1509 O   0  0  0  0  0  0  0  0  0  0  0  0
    2.6142   -0.8103   11.9086 O   0  0  0  0  0  0  0  0  0  0  0  0
   -0.3382   -1.5800    9.9972 O   0  0  0  0  0  0  0  0  0  0  0  0
   -1.9229   -1.0161   12.8921 C   0  0  0  0  0  0  0  0  0  0  0  0
   -3.2874   -1.1195   12.8874 C   0  0  0  0  0  0  0  0  0  0  0  0
   -3.9183   -1.8221   13.8806 C   0  0  0  0  0  0  0  0  0  0  0  0
   -3.1930   -2.4230   14.8821 C   0  0  0  0  0  0  0  0  0  0  0  0
   -1.8257   -2.3193   14.8864 C   0  0  0  0  0  0  0  0  0  0  0  0
   -1.1627   -1.6220   13.9033 C   0  0  0  0  0  0  0  0  0  0  0  0
    0.1166   -1.3596   13.6476 N   0  0  0  0  0  0  0  0  0  0  0  0
  1  2  1  0
  2  3  1  0
  3  4  1  0
  4  5  1  0
  5  6  1  0
  6  7  1  0
  7  8  1  0
  8  9  1  0
  9 10  1  0
 10 11  2  0
 11 12  1  0
 12 13  1  0
 13 14  1  0
 14 15  1  0
 15 16  1  0
 16 17  2  0
 17 18  1  0
 18 19  2  0
 19 20  1  0
 20 21  2  0
 19 22  1  0
 18 23  1  0
 13 24  1  0
 11 25  1  0
 25 26  2  0
 26 27  1  0
 27 28  2  0
 28 29  1  0
 29 30  2  0
 30 31  1  0
  3  1  1  0
 14  5  1  0
 13  8  1  0
 17  8  1  0
 23  9  1  0
 31 10  1  0
 21 16  1  0
 30 25  1  0
M  END
$$$$
