
     RDKit          3D

 31 38  0  0  0  0  0  0  0  0999 V2000
   -0.8910    3.9173    5.6145 C   0  0  0  0  0  0  0  0  0  0  0  0
   -0.6717    2.8974    4.5793 C   0  0  0  0  0  0  0  0  0  0  0  0
    0.0990    2.8062    5.8746 C   0  0  0  0  0  0  0  0  0  0  0  0
   -0.3086    1.6226    6.7641 C   0  0  0  0  0  0  0  0  0  0  0  0
    0.6750    1.4355    7.7962 N   0  0  0  0  0  0  0  0  0  0  0  0
    1.9168    0.9060    7.2283 C   0  0  0  0  0  0  0  0  0  0  0  0
    2.9644    0.9208    8.2847 C   0  0  0  0  0  0  0  0  0  0  0  0
    2.5035    0.2314    9.5249 C   0  0  0  0  0  0  0  0  0  0  0  0
    3.5543    0.2532   10.5851 C   0  0  0  0  0  0  0  0  0  0  0  0
    3.0030    0.4576   11.9064 C   0  0  0  0  0  0  0  0  0  0  0  0
    1.8132    1.1212   12.1059 C   0  0  0  0  0  0  0  0  0  0  0  0
    1.0583    1.6295   10.8905 C   0  0  0  0  0  0  0  0  0  0  0  0
    1.0828    0.4885    9.9604 C   0  0  0  0  0  0  0  0  0  0  0  0
    0.2053    0.4338    8.7795 C   0  0  0  0  0  0  0  0  0  0  0  0
    0.1908   -0.9387    8.1447 C   0  0  0  0  0  0  0  0  0  0  0  0
    1.3757   -1.7621    8.5515 C   0  0  0  0  0  0  0  0  0  0  0  0
    2.4210   -1.2451    9.2346 C   0  0  0  0  0  0  0  0  0  0  0  0
    3.4904   -1.8805    9.7193 C   0  0  0  0  0  0  0  0  0  0  0  0
    3.5646   -3.2456    9.5001 C   0  0  0  0  0  0  0  0  0  0  0  0
    2.5272   -3.8705    8.7950 C   0  0  0  0  0  0  0  0  0  0  0  0
    1.4399   -3.1328    8.3251 C   0  0  0  0  0  0  0  0  0  0  0  0
    4.6614   -3.9752    9.9804 O   0  0  0  0  0  0  0  0  0  0  0  0
    4.3271   -0.9369   10.3873 O   0  0  0  0  0  0  0  0  0  0  0  0
    0.7570   -0.6654   10.7647 O   0  0  0  0  0  0  0  0  0  0  0  0
    1.5416    1.1807   13.4452 C   0  0  0  0  0  0  0  0  0  0  0  0
    0.5047    1.7160   14.1599 C   0  0  0  0  0  0  0  0  0  0  0  0
    0.5002    1.6176   15.5269 C   0  0  0  0  0  0  0  0  0  0  0  0
    1.5284    0.9869   16.1866 C   0  0  0  0  0  0  0  0  0  0  0  0
    2.5672    0.4506   15.4701 C   0  0  0  0  0  0  0  0  0  0  0  0
    2.6006    0.5319   14.0973 C   0  0  0  0  0  0  0  0  0  0  0  0
    3.4473    0.1156   13.1590 N   0  0  0  0  0  0  0  0  0  0  0  0
  1  2  1  0
  2  3  1  0
  3  4  1  0
  4  5  1  0
  5  6  1  0
  6  7  1  0
  7  8  1  0
  8  9  1  0
  9 10  1  0
 10 11  2  0
 11 12  1  0
 12 13  1  0
 13 14  1  0
 14 15  1  0
 15 16  1  0
 16 17  2  0
 17 18  1  0
 18 19  2  0
 19 20  1  0
 20 21  2  0
 19 22  1  0
 18 23  1  0
 13 24  1  0
 11 25  1  0
 25 26  2  0
 26 27  1  0
 27 28  2  0
 28 29  1  0
 29 30  2  0
 30 31  1  0
  3  1  1  0
 14  5  1  0
 13  8  1  0
 17  8  1  0
 23  9  1  0
 31 10  1  0
 21 16  1  0
 30 25  1  0
M  END
$$$$
