
     RDKit          3D

 31 38  0  0  0  0  0  0  0  0999 V2000
   -0.5324    4.9843    6.5142 C   0  0  0  0  0  0  0  0  0  0  0  0
   -0.9506    4.0591    5.4517 C   0  0  0  0  0  0  0  0  0  0  0  0
    0.1457    3.6391    6.4012 C   0  0  0  0  0  0  0  0  0  0  0  0
   -0.2545    2.5073    7.3589 C   0  0  0  0  0  0  0  0  0  0  0  0
    0.9033    2.0590    8.0843 N   0  0  0  0  0  0  0  0  0  0  0  0
    1.8572    1.4168    7.1774 C   0  0  0  0  0  0  0  0  0  0  0  0
    3.1171    1.1546    7.9241 C   0  0  0  0  0  0  0  0  0  0  0  0
    2.8604    0.4063    9.1890 C   0  0  0  0  0  0  0  0  0  0  0  0
    4.1255    0.1500    9.9389 C   0  0  0  0  0  0  0  0  0  0  0  0
    3.9577    0.2840   11.3691 C   0  0  0  0  0  0  0  0  0  0  0  0
    2.9868    1.0918   11.9173 C   0  0  0  0  0  0  0  0  0  0  0  0
    2.0582    1.8419   10.9788 C   0  0  0  0  0  0  0  0  0  0  0  0
    1.6561    0.8228    9.9954 C   0  0  0  0  0  0  0  0  0  0  0  0
    0.5211    1.0344    9.0819 C   0  0  0  0  0  0  0  0  0  0  0  0
    0.1135   -0.2395    8.3764 C   0  0  0  0  0  0  0  0  0  0  0  0
    1.2000   -1.2722    8.4020 C   0  0  0  0  0  0  0  0  0  0  0  0
    2.4539   -0.9986    8.8254 C   0  0  0  0  0  0  0  0  0  0  0  0
    3.4819   -1.8381    8.9695 C   0  0  0  0  0  0  0  0  0  0  0  0
    3.2618   -3.1651    8.6418 C   0  0  0  0  0  0  0  0  0  0  0  0
    1.9913   -3.5435    8.1874 C   0  0  0  0  0  0  0  0  0  0  0  0
    0.9675   -2.6025    8.0695 C   0  0  0  0  0  0  0  0  0  0  0  0
    4.2985   -4.1007    8.7677 O   0  0  0  0  0  0  0  0  0  0  0  0
    4.6075   -1.1125    9.4630 O   0  0  0  0  0  0  0  0  0  0  0  0
    1.3409   -0.3527   10.7723 O   0  0  0  0  0  0  0  0  0  0  0  0
    3.0651    1.0395   13.2819 C   0  0  0  0  0  0  0  0  0  0  0  0
    2.3435    1.6401   14.2775 C   0  0  0  0  0  0  0  0  0  0  0  0
    2.6558    1.3893   15.5882 C   0  0  0  0  0  0  0  0  0  0  0  0
    3.6881    0.5409   15.9118 C   0  0  0  0  0  0  0  0  0  0  0  0
    4.4109   -0.0607   14.9139 C   0  0  0  0  0  0  0  0  0  0  0  0
    4.1217    0.1695   13.5889 C   0  0  0  0  0  0  0  0  0  0  0  0
    4.6280   -0.2604   12.4358 N   0  0  0  0  0  0  0  0  0  0  0  0
  1  2  1  0
  2  3  1  0
  3  4  1  0
  4  5  1  0
  5  6  1  0
  6  7  1  0
  7  8  1  0
  8  9  1  0
  9 10  1  0
 10 11  2  0
 11 12  1  0
 12 13  1  0
 13 14  1  0
 14 15  1  0
 15 16  1  0
 16 17  2  0
 17 18  1  0
 18 19  2  0
 19 20  1  0
 20 21  2  0
 19 22  1  0
 18 23  1  0
 13 24  1  0
 11 25  1  0
 25 26  2  0
 26 27  1  0
 27 28  2  0
 28 29  1  0
 29 30  2  0
 30 31  1  0
  3  1  1  0
 14  5  1  0
 13  8  1  0
 17  8  1  0
 23  9  1  0
 31 10  1  0
 21 16  1  0
 30 25  1  0
M  END
$$$$
