
     RDKit          3D

 31 38  0  0  0  0  0  0  0  0999 V2000
   -3.3215    4.0310   10.0620 C   0  0  0  0  0  0  0  0  0  0  0  0
   -4.5636    3.3871   10.5121 C   0  0  0  0  0  0  0  0  0  0  0  0
   -3.4017    2.5225   10.0851 C   0  0  0  0  0  0  0  0  0  0  0  0
   -2.7418    1.7473   11.2348 C   0  0  0  0  0  0  0  0  0  0  0  0
   -1.8985    0.7144   10.6969 N   0  0  0  0  0  0  0  0  0  0  0  0
   -2.2897   -0.5930   11.2287 C   0  0  0  0  0  0  0  0  0  0  0  0
   -1.5349   -1.6463   10.4977 C   0  0  0  0  0  0  0  0  0  0  0  0
   -0.0668   -1.3817   10.5143 C   0  0  0  0  0  0  0  0  0  0  0  0
    0.6873   -2.4368    9.7751 C   0  0  0  0  0  0  0  0  0  0  0  0
    1.7918   -1.8967    9.0136 C   0  0  0  0  0  0  0  0  0  0  0  0
    1.7937   -0.6001    8.5502 C   0  0  0  0  0  0  0  0  0  0  0  0
    0.6023    0.2835    8.8749 C   0  0  0  0  0  0  0  0  0  0  0  0
    0.3712    0.0468   10.3094 C   0  0  0  0  0  0  0  0  0  0  0  0
   -0.4935    0.9296   11.1099 C   0  0  0  0  0  0  0  0  0  0  0  0
   -0.3512    0.6726   12.5933 C   0  0  0  0  0  0  0  0  0  0  0  0
    0.2464   -0.6723   12.8792 C   0  0  0  0  0  0  0  0  0  0  0  0
    0.4316   -1.6051   11.9190 C   0  0  0  0  0  0  0  0  0  0  0  0
    1.0179   -2.7997   12.0258 C   0  0  0  0  0  0  0  0  0  0  0  0
    1.5004   -3.1549   13.2740 C   0  0  0  0  0  0  0  0  0  0  0  0
    1.3491   -2.2520   14.3350 C   0  0  0  0  0  0  0  0  0  0  0  0
    0.7269   -1.0187   14.1375 C   0  0  0  0  0  0  0  0  0  0  0  0
    2.1261   -4.3962   13.4577 O   0  0  0  0  0  0  0  0  0  0  0  0
    1.0060   -3.4379   10.7493 O   0  0  0  0  0  0  0  0  0  0  0  0
    1.6791    0.0948   10.9189 O   0  0  0  0  0  0  0  0  0  0  0  0
    2.9478   -0.3645    7.8548 C   0  0  0  0  0  0  0  0  0  0  0  0
    3.4339    0.7393    7.2084 C   0  0  0  0  0  0  0  0  0  0  0  0
    4.6541    0.6796    6.5872 C   0  0  0  0  0  0  0  0  0  0  0  0
    5.3935   -0.4792    6.6066 C   0  0  0  0  0  0  0  0  0  0  0  0
    4.9061   -1.5851    7.2545 C   0  0  0  0  0  0  0  0  0  0  0  0
    3.6855   -1.5570    7.8883 C   0  0  0  0  0  0  0  0  0  0  0  0
    2.9744   -2.4428    8.5816 N   0  0  0  0  0  0  0  0  0  0  0  0
  1  2  1  0
  2  3  1  0
  3  4  1  0
  4  5  1  0
  5  6  1  0
  6  7  1  0
  7  8  1  0
  8  9  1  0
  9 10  1  0
 10 11  2  0
 11 12  1  0
 12 13  1  0
 13 14  1  0
 14 15  1  0
 15 16  1  0
 16 17  2  0
 17 18  1  0
 18 19  2  0
 19 20  1  0
 20 21  2  0
 19 22  1  0
 18 23  1  0
 13 24  1  0
 11 25  1  0
 25 26  2  0
 26 27  1  0
 27 28  2  0
 28 29  1  0
 29 30  2  0
 30 31  1  0
  3  1  1  0
 14  5  1  0
 13  8  1  0
 17  8  1  0
 23  9  1  0
 31 10  1  0
 21 16  1  0
 30 25  1  0
M  END
$$$$
