
     RDKit          3D

 31 38  0  0  0  0  0  0  0  0999 V2000
   -0.9774    3.3598    5.3265 C   0  0  0  0  0  0  0  0  0  0  0  0
   -0.3092    4.3272    6.2082 C   0  0  0  0  0  0  0  0  0  0  0  0
   -0.5078    2.9101    6.6902 C   0  0  0  0  0  0  0  0  0  0  0  0
    0.7925    2.1025    6.8142 C   0  0  0  0  0  0  0  0  0  0  0  0
    0.9248    1.6072    8.1576 N   0  0  0  0  0  0  0  0  0  0  0  0
    2.3376    1.4254    8.4981 C   0  0  0  0  0  0  0  0  0  0  0  0
    2.4380    1.1115    9.9490 C   0  0  0  0  0  0  0  0  0  0  0  0
    1.5550   -0.0302   10.3264 C   0  0  0  0  0  0  0  0  0  0  0  0
    1.6533   -0.3389   11.7837 C   0  0  0  0  0  0  0  0  0  0  0  0
    0.3761   -0.6944   12.3613 C   0  0  0  0  0  0  0  0  0  0  0  0
   -0.8137   -0.2447   11.8340 C   0  0  0  0  0  0  0  0  0  0  0  0
   -0.7678    0.6330   10.5959 C   0  0  0  0  0  0  0  0  0  0  0  0
    0.1796   -0.0619    9.7088 C   0  0  0  0  0  0  0  0  0  0  0  0
    0.2912    0.2750    8.2799 C   0  0  0  0  0  0  0  0  0  0  0  0
    1.1005   -0.7486    7.5157 C   0  0  0  0  0  0  0  0  0  0  0  0
    1.9626   -1.5772    8.4200 C   0  0  0  0  0  0  0  0  0  0  0  0
    2.1351   -1.2860    9.7284 C   0  0  0  0  0  0  0  0  0  0  0  0
    2.8069   -1.9794   10.6504 C   0  0  0  0  0  0  0  0  0  0  0  0
    3.4216   -3.1484   10.2350 C   0  0  0  0  0  0  0  0  0  0  0  0
    3.3020   -3.5301    8.8919 C   0  0  0  0  0  0  0  0  0  0  0  0
    2.5762   -2.7494    7.9914 C   0  0  0  0  0  0  0  0  0  0  0  0
    4.1454   -3.9250   11.1510 O   0  0  0  0  0  0  0  0  0  0  0  0
    2.7050   -1.3044   11.9037 O   0  0  0  0  0  0  0  0  0  0  0  0
   -0.1920   -1.4556    9.7715 O   0  0  0  0  0  0  0  0  0  0  0  0
   -1.8548   -0.7205   12.5829 C   0  0  0  0  0  0  0  0  0  0  0  0
   -3.2120   -0.5746   12.4857 C   0  0  0  0  0  0  0  0  0  0  0  0
   -4.0278   -1.1872   13.4008 C   0  0  0  0  0  0  0  0  0  0  0  0
   -3.4952   -1.9460   14.4160 C   0  0  0  0  0  0  0  0  0  0  0  0
   -2.1352   -2.0920   14.5131 C   0  0  0  0  0  0  0  0  0  0  0  0
   -1.2896   -1.4908   13.6099 C   0  0  0  0  0  0  0  0  0  0  0  0
    0.0310   -1.4555   13.4500 N   0  0  0  0  0  0  0  0  0  0  0  0
  1  2  1  0
  2  3  1  0
  3  4  1  0
  4  5  1  0
  5  6  1  0
  6  7  1  0
  7  8  1  0
  8  9  1  0
  9 10  1  0
 10 11  2  0
 11 12  1  0
 12 13  1  0
 13 14  1  0
 14 15  1  0
 15 16  1  0
 16 17  2  0
 17 18  1  0
 18 19  2  0
 19 20  1  0
 20 21  2  0
 19 22  1  0
 18 23  1  0
 13 24  1  0
 11 25  1  0
 25 26  2  0
 26 27  1  0
 27 28  2  0
 28 29  1  0
 29 30  2  0
 30 31  1  0
  3  1  1  0
 14  5  1  0
 13  8  1  0
 17  8  1  0
 23  9  1  0
 31 10  1  0
 21 16  1  0
 30 25  1  0
M  END
$$$$
