
     RDKit          3D

 31 38  0  0  0  0  0  0  0  0999 V2000
   -3.5746    3.1344    7.6750 C   0  0  0  0  0  0  0  0  0  0  0  0
   -2.3961    3.9971    7.8381 C   0  0  0  0  0  0  0  0  0  0  0  0
   -2.3245    2.5615    8.3006 C   0  0  0  0  0  0  0  0  0  0  0  0
   -1.3937    1.6774    7.4578 C   0  0  0  0  0  0  0  0  0  0  0  0
   -0.1199    1.5574    8.1140 N   0  0  0  0  0  0  0  0  0  0  0  0
    0.8820    1.0207    7.1903 C   0  0  0  0  0  0  0  0  0  0  0  0
    2.2178    1.1048    7.8401 C   0  0  0  0  0  0  0  0  0  0  0  0
    2.2127    0.4700    9.1902 C   0  0  0  0  0  0  0  0  0  0  0  0
    3.5526    0.5612    9.8421 C   0  0  0  0  0  0  0  0  0  0  0  0
    3.4606    0.8216   11.2617 C   0  0  0  0  0  0  0  0  0  0  0  0
    2.3824    1.4749   11.8154 C   0  0  0  0  0  0  0  0  0  0  0  0
    1.2539    1.9102   10.8974 C   0  0  0  0  0  0  0  0  0  0  0  0
    1.0071    0.7252   10.0594 C   0  0  0  0  0  0  0  0  0  0  0  0
   -0.2080    0.5980    9.2377 C   0  0  0  0  0  0  0  0  0  0  0  0
   -0.3871   -0.8041    8.7005 C   0  0  0  0  0  0  0  0  0  0  0  0
    0.8910   -1.5872    8.7269 C   0  0  0  0  0  0  0  0  0  0  0  0
    2.0859   -1.0202    9.0046 C   0  0  0  0  0  0  0  0  0  0  0  0
    3.2748   -1.6134    9.1348 C   0  0  0  0  0  0  0  0  0  0  0  0
    3.3159   -2.9863    8.9599 C   0  0  0  0  0  0  0  0  0  0  0  0
    2.1245   -3.6620    8.6634 C   0  0  0  0  0  0  0  0  0  0  0  0
    0.9204   -2.9662    8.5487 C   0  0  0  0  0  0  0  0  0  0  0  0
    4.5321   -3.6733    9.0808 O   0  0  0  0  0  0  0  0  0  0  0  0
    4.2545   -0.6245    9.4496 O   0  0  0  0  0  0  0  0  0  0  0  0
    1.0007   -0.3927   10.9730 O   0  0  0  0  0  0  0  0  0  0  0  0
    2.5649    1.5960   13.1655 C   0  0  0  0  0  0  0  0  0  0  0  0
    1.8045    2.1491   14.1598 C   0  0  0  0  0  0  0  0  0  0  0  0
    2.2532    2.1182   15.4544 C   0  0  0  0  0  0  0  0  0  0  0  0
    3.4606    1.5376   15.7631 C   0  0  0  0  0  0  0  0  0  0  0  0
    4.2222    0.9835   14.7665 C   0  0  0  0  0  0  0  0  0  0  0  0
    3.7994    0.9975   13.4576 C   0  0  0  0  0  0  0  0  0  0  0  0
    4.3029    0.5491   12.3103 N   0  0  0  0  0  0  0  0  0  0  0  0
  1  2  1  0
  2  3  1  0
  3  4  1  0
  4  5  1  0
  5  6  1  0
  6  7  1  0
  7  8  1  0
  8  9  1  0
  9 10  1  0
 10 11  2  0
 11 12  1  0
 12 13  1  0
 13 14  1  0
 14 15  1  0
 15 16  1  0
 16 17  2  0
 17 18  1  0
 18 19  2  0
 19 20  1  0
 20 21  2  0
 19 22  1  0
 18 23  1  0
 13 24  1  0
 11 25  1  0
 25 26  2  0
 26 27  1  0
 27 28  2  0
 28 29  1  0
 29 30  2  0
 30 31  1  0
  3  1  1  0
 14  5  1  0
 13  8  1  0
 17  8  1  0
 23  9  1  0
 31 10  1  0
 21 16  1  0
 30 25  1  0
M  END
$$$$
