
     RDKit          3D

 31 38  0  0  0  0  0  0  0  0999 V2000
    0.2309    4.1142    5.6424 C   0  0  0  0  0  0  0  0  0  0  0  0
    0.7973    2.9398    4.9643 C   0  0  0  0  0  0  0  0  0  0  0  0
    0.6556    2.9221    6.4675 C   0  0  0  0  0  0  0  0  0  0  0  0
   -0.4080    1.9427    6.9851 C   0  0  0  0  0  0  0  0  0  0  0  0
   -0.0473    1.4928    8.3022 N   0  0  0  0  0  0  0  0  0  0  0  0
    1.4028    1.5748    8.4907 C   0  0  0  0  0  0  0  0  0  0  0  0
    1.7106    1.2985    9.9199 C   0  0  0  0  0  0  0  0  0  0  0  0
    1.0951    0.0187   10.3769 C   0  0  0  0  0  0  0  0  0  0  0  0
    1.4005   -0.2528   11.8126 C   0  0  0  0  0  0  0  0  0  0  0  0
    0.2773   -0.8296   12.5178 C   0  0  0  0  0  0  0  0  0  0  0  0
   -1.0232   -0.6094   12.1228 C   0  0  0  0  0  0  0  0  0  0  0  0
   -1.2684    0.2500   10.8953 C   0  0  0  0  0  0  0  0  0  0  0  0
   -0.3087   -0.2691    9.9069 C   0  0  0  0  0  0  0  0  0  0  0  0
   -0.4110    0.0687    8.4775 C   0  0  0  0  0  0  0  0  0  0  0  0
    0.4864   -0.7976    7.6226 C   0  0  0  0  0  0  0  0  0  0  0  0
    1.5752   -1.4465    8.4233 C   0  0  0  0  0  0  0  0  0  0  0  0
    1.8282   -1.1161    9.7090 C   0  0  0  0  0  0  0  0  0  0  0  0
    2.7083   -1.6665   10.5486 C   0  0  0  0  0  0  0  0  0  0  0  0
    3.4786   -2.7079   10.0596 C   0  0  0  0  0  0  0  0  0  0  0  0
    3.2901   -3.1179    8.7329 C   0  0  0  0  0  0  0  0  0  0  0  0
    2.3437   -2.4913    7.9212 C   0  0  0  0  0  0  0  0  0  0  0  0
    4.4239   -3.3306   10.8869 O   0  0  0  0  0  0  0  0  0  0  0  0
    2.6173   -1.0094   11.8122 O   0  0  0  0  0  0  0  0  0  0  0  0
   -0.4114   -1.7066    9.9947 O   0  0  0  0  0  0  0  0  0  0  0  0
   -1.8756   -1.2597   12.9723 C   0  0  0  0  0  0  0  0  0  0  0  0
   -3.2392   -1.3645   13.0195 C   0  0  0  0  0  0  0  0  0  0  0  0
   -3.8290   -2.1067   14.0093 C   0  0  0  0  0  0  0  0  0  0  0  0
   -3.0634   -2.7458   14.9555 C   0  0  0  0  0  0  0  0  0  0  0  0
   -1.6971   -2.6406   14.9078 C   0  0  0  0  0  0  0  0  0  0  0  0
   -1.0747   -1.9042   13.9266 C   0  0  0  0  0  0  0  0  0  0  0  0
    0.1931   -1.6302   13.6292 N   0  0  0  0  0  0  0  0  0  0  0  0
  1  2  1  0
  2  3  1  0
  3  4  1  0
  4  5  1  0
  5  6  1  0
  6  7  1  0
  7  8  1  0
  8  9  1  0
  9 10  1  0
 10 11  2  0
 11 12  1  0
 12 13  1  0
 13 14  1  0
 14 15  1  0
 15 16  1  0
 16 17  2  0
 17 18  1  0
 18 19  2  0
 19 20  1  0
 20 21  2  0
 19 22  1  0
 18 23  1  0
 13 24  1  0
 11 25  1  0
 25 26  2  0
 26 27  1  0
 27 28  2  0
 28 29  1  0
 29 30  2  0
 30 31  1  0
  3  1  1  0
 14  5  1  0
 13  8  1  0
 17  8  1  0
 23  9  1  0
 31 10  1  0
 21 16  1  0
 30 25  1  0
M  END
$$$$
