
     RDKit          3D

 31 38  0  0  0  0  0  0  0  0999 V2000
   -1.1015    4.4280    5.8411 C   0  0  0  0  0  0  0  0  0  0  0  0
   -1.3554    3.2415    5.0119 C   0  0  0  0  0  0  0  0  0  0  0  0
   -0.3485    3.1513    6.1335 C   0  0  0  0  0  0  0  0  0  0  0  0
   -0.7926    2.2622    7.3043 C   0  0  0  0  0  0  0  0  0  0  0  0
    0.3439    1.9464    8.1265 N   0  0  0  0  0  0  0  0  0  0  0  0
    1.4540    1.4658    7.3007 C   0  0  0  0  0  0  0  0  0  0  0  0
    2.6644    1.3470    8.1578 C   0  0  0  0  0  0  0  0  0  0  0  0
    2.3962    0.5298    9.3767 C   0  0  0  0  0  0  0  0  0  0  0  0
    3.6107    0.4174   10.2376 C   0  0  0  0  0  0  0  0  0  0  0  0
    3.2969    0.4804   11.6479 C   0  0  0  0  0  0  0  0  0  0  0  0
    2.1805    1.1347   12.1185 C   0  0  0  0  0  0  0  0  0  0  0  0
    1.2491    1.7869   11.1122 C   0  0  0  0  0  0  0  0  0  0  0  0
    1.0786    0.7570   10.0740 C   0  0  0  0  0  0  0  0  0  0  0  0
    0.0133    0.8477    9.0617 C   0  0  0  0  0  0  0  0  0  0  0  0
   -0.1537   -0.4446    8.2944 C   0  0  0  0  0  0  0  0  0  0  0  0
    1.0547   -1.3256    8.4012 C   0  0  0  0  0  0  0  0  0  0  0  0
    2.2167   -0.9036    8.9471 C   0  0  0  0  0  0  0  0  0  0  0  0
    3.3306   -1.6047    9.1703 C   0  0  0  0  0  0  0  0  0  0  0  0
    3.3213   -2.9376    8.7956 C   0  0  0  0  0  0  0  0  0  0  0  0
    2.1597   -3.4645    8.2151 C   0  0  0  0  0  0  0  0  0  0  0  0
    1.0340   -2.6631    8.0205 C   0  0  0  0  0  0  0  0  0  0  0  0
    4.4583   -3.7323    8.9996 O   0  0  0  0  0  0  0  0  0  0  0  0
    4.2990   -0.7542    9.7832 O   0  0  0  0  0  0  0  0  0  0  0  0
    0.8544   -0.4749   10.7928 O   0  0  0  0  0  0  0  0  0  0  0  0
    2.1405    1.0477   13.4830 C   0  0  0  0  0  0  0  0  0  0  0  0
    1.2572    1.5146   14.4181 C   0  0  0  0  0  0  0  0  0  0  0  0
    1.4797    1.2636   15.7470 C   0  0  0  0  0  0  0  0  0  0  0  0
    2.5827    0.5481   16.1490 C   0  0  0  0  0  0  0  0  0  0  0  0
    3.4675    0.0804   15.2118 C   0  0  0  0  0  0  0  0  0  0  0  0
    3.2719    0.3146   13.8704 C   0  0  0  0  0  0  0  0  0  0  0  0
    3.9342   -0.0062   12.7617 N   0  0  0  0  0  0  0  0  0  0  0  0
  1  2  1  0
  2  3  1  0
  3  4  1  0
  4  5  1  0
  5  6  1  0
  6  7  1  0
  7  8  1  0
  8  9  1  0
  9 10  1  0
 10 11  2  0
 11 12  1  0
 12 13  1  0
 13 14  1  0
 14 15  1  0
 15 16  1  0
 16 17  2  0
 17 18  1  0
 18 19  2  0
 19 20  1  0
 20 21  2  0
 19 22  1  0
 18 23  1  0
 13 24  1  0
 11 25  1  0
 25 26  2  0
 26 27  1  0
 27 28  2  0
 28 29  1  0
 29 30  2  0
 30 31  1  0
  3  1  1  0
 14  5  1  0
 13  8  1  0
 17  8  1  0
 23  9  1  0
 31 10  1  0
 21 16  1  0
 30 25  1  0
M  END
$$$$
