
     RDKit          3D

 31 38  0  0  0  0  0  0  0  0999 V2000
   -1.1959    4.3379    5.9981 C   0  0  0  0  0  0  0  0  0  0  0  0
   -1.9259    3.2214    5.3812 C   0  0  0  0  0  0  0  0  0  0  0  0
   -0.7147    2.9252    6.2329 C   0  0  0  0  0  0  0  0  0  0  0  0
   -1.0386    2.2266    7.5616 C   0  0  0  0  0  0  0  0  0  0  0  0
    0.1748    2.0207    8.3051 N   0  0  0  0  0  0  0  0  0  0  0  0
    1.2892    1.7412    7.3968 C   0  0  0  0  0  0  0  0  0  0  0  0
    2.5518    1.7382    8.1839 C   0  0  0  0  0  0  0  0  0  0  0  0
    2.4636    0.8249    9.3602 C   0  0  0  0  0  0  0  0  0  0  0  0
    3.7295    0.8286   10.1513 C   0  0  0  0  0  0  0  0  0  0  0  0
    3.4915    0.7693   11.5766 C   0  0  0  0  0  0  0  0  0  0  0  0
    2.3277    1.2399   12.1422 C   0  0  0  0  0  0  0  0  0  0  0  0
    1.2626    1.8165   11.2264 C   0  0  0  0  0  0  0  0  0  0  0  0
    1.1696    0.8332   10.1347 C   0  0  0  0  0  0  0  0  0  0  0  0
    0.0454    0.8366    9.1839 C   0  0  0  0  0  0  0  0  0  0  0  0
    0.0059   -0.4211    8.3453 C   0  0  0  0  0  0  0  0  0  0  0  0
    1.3235   -1.1361    8.3363 C   0  0  0  0  0  0  0  0  0  0  0  0
    2.4494   -0.5931    8.8499 C   0  0  0  0  0  0  0  0  0  0  0  0
    3.6567   -1.1495    8.9730 C   0  0  0  0  0  0  0  0  0  0  0  0
    3.8010   -2.4482    8.5154 C   0  0  0  0  0  0  0  0  0  0  0  0
    2.6873   -3.0930    7.9606 C   0  0  0  0  0  0  0  0  0  0  0  0
    1.4569   -2.4406    7.8730 C   0  0  0  0  0  0  0  0  0  0  0  0
    5.0424   -3.0929    8.6122 O   0  0  0  0  0  0  0  0  0  0  0  0
    4.5385   -0.2123    9.5902 O   0  0  0  0  0  0  0  0  0  0  0  0
    1.1507   -0.4562   10.7840 O   0  0  0  0  0  0  0  0  0  0  0  0
    2.3777    1.0716   13.4987 C   0  0  0  0  0  0  0  0  0  0  0  0
    1.4958    1.3620   14.5039 C   0  0  0  0  0  0  0  0  0  0  0  0
    1.8251    1.0688   15.8016 C   0  0  0  0  0  0  0  0  0  0  0  0
    3.0337    0.4867   16.1026 C   0  0  0  0  0  0  0  0  0  0  0  0
    3.9171    0.1958   15.0951 C   0  0  0  0  0  0  0  0  0  0  0  0
    3.6159    0.4767   13.7826 C   0  0  0  0  0  0  0  0  0  0  0  0
    4.2499    0.3109   12.6244 N   0  0  0  0  0  0  0  0  0  0  0  0
  1  2  1  0
  2  3  1  0
  3  4  1  0
  4  5  1  0
  5  6  1  0
  6  7  1  0
  7  8  1  0
  8  9  1  0
  9 10  1  0
 10 11  2  0
 11 12  1  0
 12 13  1  0
 13 14  1  0
 14 15  1  0
 15 16  1  0
 16 17  2  0
 17 18  1  0
 18 19  2  0
 19 20  1  0
 20 21  2  0
 19 22  1  0
 18 23  1  0
 13 24  1  0
 11 25  1  0
 25 26  2  0
 26 27  1  0
 27 28  2  0
 28 29  1  0
 29 30  2  0
 30 31  1  0
  3  1  1  0
 14  5  1  0
 13  8  1  0
 17  8  1  0
 23  9  1  0
 31 10  1  0
 21 16  1  0
 30 25  1  0
M  END
$$$$
