
     RDKit          3D

 31 38  0  0  0  0  0  0  0  0999 V2000
    1.2058    3.5132    5.2727 C   0  0  0  0  0  0  0  0  0  0  0  0
    1.0836    2.1123    4.8456 C   0  0  0  0  0  0  0  0  0  0  0  0
    1.1191    2.4293    6.3215 C   0  0  0  0  0  0  0  0  0  0  0  0
   -0.2117    2.1835    7.0473 C   0  0  0  0  0  0  0  0  0  0  0  0
    0.0471    1.6819    8.3698 N   0  0  0  0  0  0  0  0  0  0  0  0
    1.4835    1.7094    8.6545 C   0  0  0  0  0  0  0  0  0  0  0  0
    1.6876    1.3797   10.0909 C   0  0  0  0  0  0  0  0  0  0  0  0
    1.0032    0.1080   10.4652 C   0  0  0  0  0  0  0  0  0  0  0  0
    1.2047   -0.2171   11.9081 C   0  0  0  0  0  0  0  0  0  0  0  0
    0.0199   -0.7769   12.5199 C   0  0  0  0  0  0  0  0  0  0  0  0
   -1.2442   -0.5012   12.0487 C   0  0  0  0  0  0  0  0  0  0  0  0
   -1.3808    0.4028   10.8364 C   0  0  0  0  0  0  0  0  0  0  0  0
   -0.3749   -0.1180    9.8960 C   0  0  0  0  0  0  0  0  0  0  0  0
   -0.3722    0.2662    8.4747 C   0  0  0  0  0  0  0  0  0  0  0  0
    0.5518   -0.6034    7.6521 C   0  0  0  0  0  0  0  0  0  0  0  0
    1.5645   -1.3125    8.5002 C   0  0  0  0  0  0  0  0  0  0  0  0
    1.7426   -1.0300    9.8098 C   0  0  0  0  0  0  0  0  0  0  0  0
    2.5476   -1.6349   10.6863 C   0  0  0  0  0  0  0  0  0  0  0  0
    3.3152   -2.6862   10.2147 C   0  0  0  0  0  0  0  0  0  0  0  0
    3.2018   -3.0492    8.8659 C   0  0  0  0  0  0  0  0  0  0  0  0
    2.3311   -2.3667    8.0154 C   0  0  0  0  0  0  0  0  0  0  0  0
    4.1839   -3.3652   11.0809 O   0  0  0  0  0  0  0  0  0  0  0  0
    2.3944   -1.0137   11.9620 O   0  0  0  0  0  0  0  0  0  0  0  0
   -0.5285   -1.5532    9.9303 O   0  0  0  0  0  0  0  0  0  0  0  0
   -2.1708   -1.1480   12.8195 C   0  0  0  0  0  0  0  0  0  0  0  0
   -3.5372   -1.2083   12.7748 C   0  0  0  0  0  0  0  0  0  0  0  0
   -4.2141   -1.9600   13.6996 C   0  0  0  0  0  0  0  0  0  0  0  0
   -3.5330   -2.6529   14.6722 C   0  0  0  0  0  0  0  0  0  0  0  0
   -2.1638   -2.5923   14.7167 C   0  0  0  0  0  0  0  0  0  0  0  0
   -1.4553   -1.8477   13.8024 C   0  0  0  0  0  0  0  0  0  0  0  0
   -0.1627   -1.6076   13.5969 N   0  0  0  0  0  0  0  0  0  0  0  0
  1  2  1  0
  2  3  1  0
  3  4  1  0
  4  5  1  0
  5  6  1  0
  6  7  1  0
  7  8  1  0
  8  9  1  0
  9 10  1  0
 10 11  2  0
 11 12  1  0
 12 13  1  0
 13 14  1  0
 14 15  1  0
 15 16  1  0
 16 17  2  0
 17 18  1  0
 18 19  2  0
 19 20  1  0
 20 21  2  0
 19 22  1  0
 18 23  1  0
 13 24  1  0
 11 25  1  0
 25 26  2  0
 26 27  1  0
 27 28  2  0
 28 29  1  0
 29 30  2  0
 30 31  1  0
  3  1  1  0
 14  5  1  0
 13  8  1  0
 17  8  1  0
 23  9  1  0
 31 10  1  0
 21 16  1  0
 30 25  1  0
M  END
$$$$
