
     RDKit          3D

 31 38  0  0  0  0  0  0  0  0999 V2000
   -1.6499    3.8897    5.7118 C   0  0  0  0  0  0  0  0  0  0  0  0
   -1.1321    2.7506    4.9411 C   0  0  0  0  0  0  0  0  0  0  0  0
   -0.6152    2.9859    6.3401 C   0  0  0  0  0  0  0  0  0  0  0  0
   -1.0562    1.9239    7.3580 C   0  0  0  0  0  0  0  0  0  0  0  0
    0.0213    1.6567    8.2718 N   0  0  0  0  0  0  0  0  0  0  0  0
    1.2775    1.4748    7.5411 C   0  0  0  0  0  0  0  0  0  0  0  0
    2.3914    1.4058    8.5250 C   0  0  0  0  0  0  0  0  0  0  0  0
    2.1307    0.3826    9.5790 C   0  0  0  0  0  0  0  0  0  0  0  0
    3.2472    0.3198   10.5680 C   0  0  0  0  0  0  0  0  0  0  0  0
    2.7771    0.1214   11.9212 C   0  0  0  0  0  0  0  0  0  0  0  0
    1.5245    0.5262   12.3253 C   0  0  0  0  0  0  0  0  0  0  0  0
    0.6130    1.1801   11.3020 C   0  0  0  0  0  0  0  0  0  0  0  0
    0.7262    0.3061   10.1228 C   0  0  0  0  0  0  0  0  0  0  0  0
   -0.2240    0.3924    9.0015 C   0  0  0  0  0  0  0  0  0  0  0  0
   -0.0937   -0.7788    8.0539 C   0  0  0  0  0  0  0  0  0  0  0  0
    1.2238   -1.4793    8.1989 C   0  0  0  0  0  0  0  0  0  0  0  0
    2.2354   -0.9796    8.9428 C   0  0  0  0  0  0  0  0  0  0  0  0
    3.4184   -1.5358    9.2138 C   0  0  0  0  0  0  0  0  0  0  0  0
    3.6677   -2.7832    8.6672 C   0  0  0  0  0  0  0  0  0  0  0  0
    2.6774   -3.3802    7.8754 C   0  0  0  0  0  0  0  0  0  0  0  0
    1.4634   -2.7320    7.6443 C   0  0  0  0  0  0  0  0  0  0  0  0
    4.8907   -3.4245    8.9099 O   0  0  0  0  0  0  0  0  0  0  0  0
    4.1628   -0.6557   10.0554 O   0  0  0  0  0  0  0  0  0  0  0  0
    0.6304   -1.0401   10.6359 O   0  0  0  0  0  0  0  0  0  0  0  0
    1.3524    0.2282   13.6491 C   0  0  0  0  0  0  0  0  0  0  0  0
    0.3090    0.4133   14.5149 C   0  0  0  0  0  0  0  0  0  0  0  0
    0.4250   -0.0011   15.8161 C   0  0  0  0  0  0  0  0  0  0  0  0
    1.5802   -0.6001   16.2596 C   0  0  0  0  0  0  0  0  0  0  0  0
    2.6255   -0.7855   15.3917 C   0  0  0  0  0  0  0  0  0  0  0  0
    2.5400   -0.3817   14.0795 C   0  0  0  0  0  0  0  0  0  0  0  0
    3.3615   -0.4300   13.0338 N   0  0  0  0  0  0  0  0  0  0  0  0
  1  2  1  0
  2  3  1  0
  3  4  1  0
  4  5  1  0
  5  6  1  0
  6  7  1  0
  7  8  1  0
  8  9  1  0
  9 10  1  0
 10 11  2  0
 11 12  1  0
 12 13  1  0
 13 14  1  0
 14 15  1  0
 15 16  1  0
 16 17  2  0
 17 18  1  0
 18 19  2  0
 19 20  1  0
 20 21  2  0
 19 22  1  0
 18 23  1  0
 13 24  1  0
 11 25  1  0
 25 26  2  0
 26 27  1  0
 27 28  2  0
 28 29  1  0
 29 30  2  0
 30 31  1  0
  3  1  1  0
 14  5  1  0
 13  8  1  0
 17  8  1  0
 23  9  1  0
 31 10  1  0
 21 16  1  0
 30 25  1  0
M  END
$$$$
