
     RDKit          3D

 31 38  0  0  0  0  0  0  0  0999 V2000
    1.7612    3.4672    5.3152 C   0  0  0  0  0  0  0  0  0  0  0  0
    1.3752    2.1166    4.8828 C   0  0  0  0  0  0  0  0  0  0  0  0
    1.5018    2.4066    6.3593 C   0  0  0  0  0  0  0  0  0  0  0  0
    0.1654    2.4006    7.1158 C   0  0  0  0  0  0  0  0  0  0  0  0
    0.3676    1.8920    8.4454 N   0  0  0  0  0  0  0  0  0  0  0  0
    1.7968    1.8425    8.7615 C   0  0  0  0  0  0  0  0  0  0  0  0
    1.9513    1.5089   10.2032 C   0  0  0  0  0  0  0  0  0  0  0  0
    1.1906    0.2782   10.5668 C   0  0  0  0  0  0  0  0  0  0  0  0
    1.3426   -0.0505   12.0150 C   0  0  0  0  0  0  0  0  0  0  0  0
    0.1159   -0.5421   12.6026 C   0  0  0  0  0  0  0  0  0  0  0  0
   -1.1207   -0.2001   12.1028 C   0  0  0  0  0  0  0  0  0  0  0  0
   -1.1813    0.7042   10.8846 C   0  0  0  0  0  0  0  0  0  0  0  0
   -0.1851    0.1249    9.9683 C   0  0  0  0  0  0  0  0  0  0  0  0
   -0.1305    0.5017    8.5461 C   0  0  0  0  0  0  0  0  0  0  0  0
    0.7623   -0.4209    7.7471 C   0  0  0  0  0  0  0  0  0  0  0  0
    1.7161   -1.1801    8.6198 C   0  0  0  0  0  0  0  0  0  0  0  0
    1.8808   -0.9015    9.9319 C   0  0  0  0  0  0  0  0  0  0  0  0
    2.6323   -1.5452   10.8281 C   0  0  0  0  0  0  0  0  0  0  0  0
    3.3515   -2.6390   10.3772 C   0  0  0  0  0  0  0  0  0  0  0  0
    3.2478   -3.0017    9.0275 C   0  0  0  0  0  0  0  0  0  0  0  0
    2.4343   -2.2768    8.1556 C   0  0  0  0  0  0  0  0  0  0  0  0
    4.1628   -3.3602   11.2647 O   0  0  0  0  0  0  0  0  0  0  0  0
    2.4855   -0.9105   12.0979 O   0  0  0  0  0  0  0  0  0  0  0  0
   -0.4175   -1.2996   10.0043 O   0  0  0  0  0  0  0  0  0  0  0  0
   -2.0977   -0.7918   12.8553 C   0  0  0  0  0  0  0  0  0  0  0  0
   -3.4641   -0.7777   12.7808 C   0  0  0  0  0  0  0  0  0  0  0  0
   -4.2009   -1.4870   13.6932 C   0  0  0  0  0  0  0  0  0  0  0  0
   -3.5800   -2.2114   14.6829 C   0  0  0  0  0  0  0  0  0  0  0  0
   -2.2109   -2.2253   14.7573 C   0  0  0  0  0  0  0  0  0  0  0  0
   -1.4431   -1.5248   13.8561 C   0  0  0  0  0  0  0  0  0  0  0  0
   -0.1351   -1.3565   13.6782 N   0  0  0  0  0  0  0  0  0  0  0  0
  1  2  1  0
  2  3  1  0
  3  4  1  0
  4  5  1  0
  5  6  1  0
  6  7  1  0
  7  8  1  0
  8  9  1  0
  9 10  1  0
 10 11  2  0
 11 12  1  0
 12 13  1  0
 13 14  1  0
 14 15  1  0
 15 16  1  0
 16 17  2  0
 17 18  1  0
 18 19  2  0
 19 20  1  0
 20 21  2  0
 19 22  1  0
 18 23  1  0
 13 24  1  0
 11 25  1  0
 25 26  2  0
 26 27  1  0
 27 28  2  0
 28 29  1  0
 29 30  2  0
 30 31  1  0
  3  1  1  0
 14  5  1  0
 13  8  1  0
 17  8  1  0
 23  9  1  0
 31 10  1  0
 21 16  1  0
 30 25  1  0
M  END
$$$$
