
     RDKit          3D

 31 38  0  0  0  0  0  0  0  0999 V2000
    1.2738    3.3959    5.9594 C   0  0  0  0  0  0  0  0  0  0  0  0
    0.3069    3.0062    4.9234 C   0  0  0  0  0  0  0  0  0  0  0  0
    0.5897    2.0526    6.0595 C   0  0  0  0  0  0  0  0  0  0  0  0
   -0.5842    1.8721    7.0330 C   0  0  0  0  0  0  0  0  0  0  0  0
   -0.0844    1.4703    8.3199 N   0  0  0  0  0  0  0  0  0  0  0  0
    1.3782    1.3963    8.2995 C   0  0  0  0  0  0  0  0  0  0  0  0
    1.8605    1.1800    9.6903 C   0  0  0  0  0  0  0  0  0  0  0  0
    1.1871    0.0124   10.3299 C   0  0  0  0  0  0  0  0  0  0  0  0
    1.6686   -0.1984   11.7271 C   0  0  0  0  0  0  0  0  0  0  0  0
    0.6060   -0.5943   12.6247 C   0  0  0  0  0  0  0  0  0  0  0  0
   -0.7078   -0.2515   12.3961 C   0  0  0  0  0  0  0  0  0  0  0  0
   -1.0378    0.5487   11.1485 C   0  0  0  0  0  0  0  0  0  0  0  0
   -0.2926   -0.1412   10.0826 C   0  0  0  0  0  0  0  0  0  0  0  0
   -0.5664    0.1123    8.6584 C   0  0  0  0  0  0  0  0  0  0  0  0
    0.1006   -0.9058    7.7610 C   0  0  0  0  0  0  0  0  0  0  0  0
    1.2203   -1.6226    8.4539 C   0  0  0  0  0  0  0  0  0  0  0  0
    1.6916   -1.2406    9.6615 C   0  0  0  0  0  0  0  0  0  0  0  0
    2.6219   -1.8332   10.4136 C   0  0  0  0  0  0  0  0  0  0  0  0
    3.1988   -2.9862    9.9090 C   0  0  0  0  0  0  0  0  0  0  0  0
    2.7767   -3.4574    8.6585 C   0  0  0  0  0  0  0  0  0  0  0  0
    1.7931   -2.7797    7.9369 C   0  0  0  0  0  0  0  0  0  0  0  0
    4.1840   -3.6588   10.6459 O   0  0  0  0  0  0  0  0  0  0  0  0
    2.7859   -1.0889   11.6202 O   0  0  0  0  0  0  0  0  0  0  0  0
   -0.5319   -1.5483   10.2999 O   0  0  0  0  0  0  0  0  0  0  0  0
   -1.4907   -0.7421   13.4048 C   0  0  0  0  0  0  0  0  0  0  0  0
   -2.8362   -0.6853   13.6478 C   0  0  0  0  0  0  0  0  0  0  0  0
   -3.3500   -1.2882   14.7662 C   0  0  0  0  0  0  0  0  0  0  0  0
   -2.5259   -1.9486   15.6465 C   0  0  0  0  0  0  0  0  0  0  0  0
   -1.1778   -2.0053   15.4026 C   0  0  0  0  0  0  0  0  0  0  0  0
   -0.6314   -1.4113   14.2887 C   0  0  0  0  0  0  0  0  0  0  0  0
    0.6011   -1.3057   13.7982 N   0  0  0  0  0  0  0  0  0  0  0  0
  1  2  1  0
  2  3  1  0
  3  4  1  0
  4  5  1  0
  5  6  1  0
  6  7  1  0
  7  8  1  0
  8  9  1  0
  9 10  1  0
 10 11  2  0
 11 12  1  0
 12 13  1  0
 13 14  1  0
 14 15  1  0
 15 16  1  0
 16 17  2  0
 17 18  1  0
 18 19  2  0
 19 20  1  0
 20 21  2  0
 19 22  1  0
 18 23  1  0
 13 24  1  0
 11 25  1  0
 25 26  2  0
 26 27  1  0
 27 28  2  0
 28 29  1  0
 29 30  2  0
 30 31  1  0
  3  1  1  0
 14  5  1  0
 13  8  1  0
 17  8  1  0
 23  9  1  0
 31 10  1  0
 21 16  1  0
 30 25  1  0
M  END
$$$$
