
     RDKit          3D

 31 38  0  0  0  0  0  0  0  0999 V2000
   -4.8374    1.2166   10.5243 C   0  0  0  0  0  0  0  0  0  0  0  0
   -4.6053    2.5030    9.8526 C   0  0  0  0  0  0  0  0  0  0  0  0
   -3.4183    1.6824   10.2970 C   0  0  0  0  0  0  0  0  0  0  0  0
   -2.6019    1.0848    9.1417 C   0  0  0  0  0  0  0  0  0  0  0  0
   -1.2023    1.1298    9.4682 N   0  0  0  0  0  0  0  0  0  0  0  0
   -0.3915    1.0752    8.2497 C   0  0  0  0  0  0  0  0  0  0  0  0
    1.0284    1.3290    8.6144 C   0  0  0  0  0  0  0  0  0  0  0  0
    1.4855    0.4220    9.7072 C   0  0  0  0  0  0  0  0  0  0  0  0
    2.9085    0.6830   10.0750 C   0  0  0  0  0  0  0  0  0  0  0  0
    3.1390    0.5838   11.4993 C   0  0  0  0  0  0  0  0  0  0  0  0
    2.1395    0.8142   12.4180 C   0  0  0  0  0  0  0  0  0  0  0  0
    0.7536    1.1613   11.9040 C   0  0  0  0  0  0  0  0  0  0  0  0
    0.5181    0.1743   10.8373 C   0  0  0  0  0  0  0  0  0  0  0  0
   -0.8235   -0.0521   10.2749 C   0  0  0  0  0  0  0  0  0  0  0  0
   -0.8782   -1.2961    9.4169 C   0  0  0  0  0  0  0  0  0  0  0  0
    0.4836   -1.7324    8.9667 C   0  0  0  0  0  0  0  0  0  0  0  0
    1.5868   -0.9723    9.1444 C   0  0  0  0  0  0  0  0  0  0  0  0
    2.8562   -1.2748    8.8624 C   0  0  0  0  0  0  0  0  0  0  0  0
    3.0985   -2.5204    8.3085 C   0  0  0  0  0  0  0  0  0  0  0  0
    2.0135   -3.3779    8.0821 C   0  0  0  0  0  0  0  0  0  0  0  0
    0.7151   -2.9859    8.4103 C   0  0  0  0  0  0  0  0  0  0  0  0
    4.4084   -2.9027    7.9862 O   0  0  0  0  0  0  0  0  0  0  0  0
    3.6884   -0.1770    9.2355 O   0  0  0  0  0  0  0  0  0  0  0  0
    0.9490   -1.0897   11.3861 O   0  0  0  0  0  0  0  0  0  0  0  0
    2.6379    0.6655   13.6831 C   0  0  0  0  0  0  0  0  0  0  0  0
    2.0716    0.7778   14.9238 C   0  0  0  0  0  0  0  0  0  0  0  0
    2.8359    0.5626   16.0408 C   0  0  0  0  0  0  0  0  0  0  0  0
    4.1665    0.2360   15.9263 C   0  0  0  0  0  0  0  0  0  0  0  0
    4.7336    0.1235   14.6829 C   0  0  0  0  0  0  0  0  0  0  0  0
    3.9932    0.3323   13.5425 C   0  0  0  0  0  0  0  0  0  0  0  0
    4.2574    0.2916   12.2389 N   0  0  0  0  0  0  0  0  0  0  0  0
  1  2  1  0
  2  3  1  0
  3  4  1  0
  4  5  1  0
  5  6  1  0
  6  7  1  0
  7  8  1  0
  8  9  1  0
  9 10  1  0
 10 11  2  0
 11 12  1  0
 12 13  1  0
 13 14  1  0
 14 15  1  0
 15 16  1  0
 16 17  2  0
 17 18  1  0
 18 19  2  0
 19 20  1  0
 20 21  2  0
 19 22  1  0
 18 23  1  0
 13 24  1  0
 11 25  1  0
 25 26  2  0
 26 27  1  0
 27 28  2  0
 28 29  1  0
 29 30  2  0
 30 31  1  0
  3  1  1  0
 14  5  1  0
 13  8  1  0
 17  8  1  0
 23  9  1  0
 31 10  1  0
 21 16  1  0
 30 25  1  0
M  END
$$$$
