
     RDKit          3D

 31 38  0  0  0  0  0  0  0  0999 V2000
   -2.6346   -1.2308    6.9635 C   0  0  0  0  0  0  0  0  0  0  0  0
   -3.7049   -0.8102    7.8786 C   0  0  0  0  0  0  0  0  0  0  0  0
   -2.2686   -0.5317    8.2518 C   0  0  0  0  0  0  0  0  0  0  0  0
   -1.8913    0.9567    8.2241 C   0  0  0  0  0  0  0  0  0  0  0  0
   -0.5522    1.1228    8.7206 N   0  0  0  0  0  0  0  0  0  0  0  0
    0.4233    0.7967    7.6779 C   0  0  0  0  0  0  0  0  0  0  0  0
    1.7782    1.1752    8.1624 C   0  0  0  0  0  0  0  0  0  0  0  0
    2.0710    0.5773    9.4976 C   0  0  0  0  0  0  0  0  0  0  0  0
    3.4285    0.9637    9.9837 C   0  0  0  0  0  0  0  0  0  0  0  0
    3.4537    1.2227   11.4064 C   0  0  0  0  0  0  0  0  0  0  0  0
    2.3349    1.6401   12.0919 C   0  0  0  0  0  0  0  0  0  0  0  0
    1.0377    1.8086   11.3209 C   0  0  0  0  0  0  0  0  0  0  0  0
    0.9517    0.5840   10.5082 C   0  0  0  0  0  0  0  0  0  0  0  0
   -0.2975    0.1862    9.8381 C   0  0  0  0  0  0  0  0  0  0  0  0
   -0.2354   -1.2309    9.3140 C   0  0  0  0  0  0  0  0  0  0  0  0
    1.1745   -1.7223    9.1788 C   0  0  0  0  0  0  0  0  0  0  0  0
    2.2448   -0.9086    9.3153 C   0  0  0  0  0  0  0  0  0  0  0  0
    3.5399   -1.2319    9.2957 C   0  0  0  0  0  0  0  0  0  0  0  0
    3.8526   -2.5671    9.1049 C   0  0  0  0  0  0  0  0  0  0  0  0
    2.8068   -3.4867    8.9483 C   0  0  0  0  0  0  0  0  0  0  0  0
    1.4768   -3.0661    8.9861 C   0  0  0  0  0  0  0  0  0  0  0  0
    5.1933   -2.9764    9.0719 O   0  0  0  0  0  0  0  0  0  0  0  0
    4.3157   -0.0514    9.4987 O   0  0  0  0  0  0  0  0  0  0  0  0
    1.2942   -0.4937   11.4058 O   0  0  0  0  0  0  0  0  0  0  0  0
    2.6477    1.8206   13.4112 C   0  0  0  0  0  0  0  0  0  0  0  0
    1.9113    2.2155   14.4949 C   0  0  0  0  0  0  0  0  0  0  0  0
    2.5080    2.3034   15.7256 C   0  0  0  0  0  0  0  0  0  0  0  0
    3.8398    1.9994   15.8810 C   0  0  0  0  0  0  0  0  0  0  0  0
    4.5773    1.6037   14.7949 C   0  0  0  0  0  0  0  0  0  0  0  0
    4.0076    1.5046   13.5467 C   0  0  0  0  0  0  0  0  0  0  0  0
    4.4543    1.1545   12.3431 N   0  0  0  0  0  0  0  0  0  0  0  0
  1  2  1  0
  2  3  1  0
  3  4  1  0
  4  5  1  0
  5  6  1  0
  6  7  1  0
  7  8  1  0
  8  9  1  0
  9 10  1  0
 10 11  2  0
 11 12  1  0
 12 13  1  0
 13 14  1  0
 14 15  1  0
 15 16  1  0
 16 17  2  0
 17 18  1  0
 18 19  2  0
 19 20  1  0
 20 21  2  0
 19 22  1  0
 18 23  1  0
 13 24  1  0
 11 25  1  0
 25 26  2  0
 26 27  1  0
 27 28  2  0
 28 29  1  0
 29 30  2  0
 30 31  1  0
  3  1  1  0
 14  5  1  0
 13  8  1  0
 17  8  1  0
 23  9  1  0
 31 10  1  0
 21 16  1  0
 30 25  1  0
M  END
$$$$
