
     RDKit          3D

 31 38  0  0  0  0  0  0  0  0999 V2000
   -1.0315    4.0447    5.9306 C   0  0  0  0  0  0  0  0  0  0  0  0
    0.3786    4.1936    5.5440 C   0  0  0  0  0  0  0  0  0  0  0  0
    0.0413    3.4692    6.8252 C   0  0  0  0  0  0  0  0  0  0  0  0
    0.3297    1.9613    6.7869 C   0  0  0  0  0  0  0  0  0  0  0  0
    0.5738    1.4842    8.1212 N   0  0  0  0  0  0  0  0  0  0  0  0
    2.0115    1.4586    8.3994 C   0  0  0  0  0  0  0  0  0  0  0  0
    2.2088    1.1584    9.8433 C   0  0  0  0  0  0  0  0  0  0  0  0
    1.4734   -0.0730   10.2538 C   0  0  0  0  0  0  0  0  0  0  0  0
    1.6683   -0.3682   11.7041 C   0  0  0  0  0  0  0  0  0  0  0  0
    0.4640   -0.8613   12.3351 C   0  0  0  0  0  0  0  0  0  0  0  0
   -0.7897   -0.5450   11.8617 C   0  0  0  0  0  0  0  0  0  0  0  0
   -0.8942    0.3318   10.6264 C   0  0  0  0  0  0  0  0  0  0  0  0
    0.0841   -0.2556    9.6962 C   0  0  0  0  0  0  0  0  0  0  0  0
    0.0959    0.0907    8.2653 C   0  0  0  0  0  0  0  0  0  0  0  0
    0.9784   -0.8385    7.4624 C   0  0  0  0  0  0  0  0  0  0  0  0
    1.9646   -1.5671    8.3251 C   0  0  0  0  0  0  0  0  0  0  0  0
    2.1609   -1.2580    9.6259 C   0  0  0  0  0  0  0  0  0  0  0  0
    2.9442   -1.8731   10.5151 C   0  0  0  0  0  0  0  0  0  0  0  0
    3.6645   -2.9679   10.0685 C   0  0  0  0  0  0  0  0  0  0  0  0
    3.5291   -3.3612    8.7302 C   0  0  0  0  0  0  0  0  0  0  0  0
    2.6837   -2.6652    7.8653 C   0  0  0  0  0  0  0  0  0  0  0  0
    4.5082   -3.6599   10.9490 O   0  0  0  0  0  0  0  0  0  0  0  0
    2.8236   -1.2126   11.7744 O   0  0  0  0  0  0  0  0  0  0  0  0
   -0.1295   -1.6816    9.7691 O   0  0  0  0  0  0  0  0  0  0  0  0
   -1.7388   -1.1316   12.6530 C   0  0  0  0  0  0  0  0  0  0  0  0
   -3.1067   -1.1353   12.6153 C   0  0  0  0  0  0  0  0  0  0  0  0
   -3.8100   -1.8332   13.5623 C   0  0  0  0  0  0  0  0  0  0  0  0
   -3.1538   -2.5284   14.5502 C   0  0  0  0  0  0  0  0  0  0  0  0
   -1.7831   -2.5244   14.5877 C   0  0  0  0  0  0  0  0  0  0  0  0
   -1.0485   -1.8347   13.6513 C   0  0  0  0  0  0  0  0  0  0  0  0
    0.2521   -1.6549   13.4344 N   0  0  0  0  0  0  0  0  0  0  0  0
  1  2  1  0
  2  3  1  0
  3  4  1  0
  4  5  1  0
  5  6  1  0
  6  7  1  0
  7  8  1  0
  8  9  1  0
  9 10  1  0
 10 11  2  0
 11 12  1  0
 12 13  1  0
 13 14  1  0
 14 15  1  0
 15 16  1  0
 16 17  2  0
 17 18  1  0
 18 19  2  0
 19 20  1  0
 20 21  2  0
 19 22  1  0
 18 23  1  0
 13 24  1  0
 11 25  1  0
 25 26  2  0
 26 27  1  0
 27 28  2  0
 28 29  1  0
 29 30  2  0
 30 31  1  0
  3  1  1  0
 14  5  1  0
 13  8  1  0
 17  8  1  0
 23  9  1  0
 31 10  1  0
 21 16  1  0
 30 25  1  0
M  END
$$$$
