
     RDKit          3D

 31 38  0  0  0  0  0  0  0  0999 V2000
   -1.7759    4.3767    6.8315 C   0  0  0  0  0  0  0  0  0  0  0  0
   -1.4319    4.1216    5.4256 C   0  0  0  0  0  0  0  0  0  0  0  0
   -0.4555    3.7193    6.5049 C   0  0  0  0  0  0  0  0  0  0  0  0
   -0.3032    2.2009    6.6776 C   0  0  0  0  0  0  0  0  0  0  0  0
    0.5932    1.9284    7.7683 N   0  0  0  0  0  0  0  0  0  0  0  0
    1.9393    1.6463    7.2649 C   0  0  0  0  0  0  0  0  0  0  0  0
    2.8716    1.5733    8.4221 C   0  0  0  0  0  0  0  0  0  0  0  0
    2.3835    0.6207    9.4614 C   0  0  0  0  0  0  0  0  0  0  0  0
    3.3178    0.5541   10.6238 C   0  0  0  0  0  0  0  0  0  0  0  0
    2.6223    0.4502   11.8875 C   0  0  0  0  0  0  0  0  0  0  0  0
    1.3460    0.9373   12.0601 C   0  0  0  0  0  0  0  0  0  0  0  0
    0.6533    1.5816   10.8724 C   0  0  0  0  0  0  0  0  0  0  0  0
    0.9070    0.6427    9.7672 C   0  0  0  0  0  0  0  0  0  0  0  0
    0.1594    0.7177    8.5011 C   0  0  0  0  0  0  0  0  0  0  0  0
    0.3750   -0.5064    7.6398 C   0  0  0  0  0  0  0  0  0  0  0  0
    1.6085   -1.2631    8.0317 C   0  0  0  0  0  0  0  0  0  0  0  0
    2.5120   -0.7763    8.9109 C   0  0  0  0  0  0  0  0  0  0  0  0
    3.6007   -1.3759    9.3983 C   0  0  0  0  0  0  0  0  0  0  0  0
    3.8635   -2.6609    8.9550 C   0  0  0  0  0  0  0  0  0  0  0  0
    2.9831   -3.2483    8.0364 C   0  0  0  0  0  0  0  0  0  0  0  0
    1.8627   -2.5534    7.5791 C   0  0  0  0  0  0  0  0  0  0  0  0
    4.9913   -3.3488    9.4249 O   0  0  0  0  0  0  0  0  0  0  0  0
    4.2470   -0.4912   10.3129 O   0  0  0  0  0  0  0  0  0  0  0  0
    0.6511   -0.6685   10.3150 O   0  0  0  0  0  0  0  0  0  0  0  0
    0.9429    0.7177   13.3486 C   0  0  0  0  0  0  0  0  0  0  0  0
   -0.2155    0.9995   14.0204 C   0  0  0  0  0  0  0  0  0  0  0  0
   -0.3378    0.6482   15.3395 C   0  0  0  0  0  0  0  0  0  0  0  0
    0.6929    0.0164   15.9940 C   0  0  0  0  0  0  0  0  0  0  0  0
    1.8535   -0.2659   15.3206 C   0  0  0  0  0  0  0  0  0  0  0  0
    2.0070    0.0728   13.9962 C   0  0  0  0  0  0  0  0  0  0  0  0
    2.9842   -0.0709   13.1044 N   0  0  0  0  0  0  0  0  0  0  0  0
  1  2  1  0
  2  3  1  0
  3  4  1  0
  4  5  1  0
  5  6  1  0
  6  7  1  0
  7  8  1  0
  8  9  1  0
  9 10  1  0
 10 11  2  0
 11 12  1  0
 12 13  1  0
 13 14  1  0
 14 15  1  0
 15 16  1  0
 16 17  2  0
 17 18  1  0
 18 19  2  0
 19 20  1  0
 20 21  2  0
 19 22  1  0
 18 23  1  0
 13 24  1  0
 11 25  1  0
 25 26  2  0
 26 27  1  0
 27 28  2  0
 28 29  1  0
 29 30  2  0
 30 31  1  0
  3  1  1  0
 14  5  1  0
 13  8  1  0
 17  8  1  0
 23  9  1  0
 31 10  1  0
 21 16  1  0
 30 25  1  0
M  END
$$$$
