
     RDKit          3D

 31 38  0  0  0  0  0  0  0  0999 V2000
    3.4213    5.4799   12.8308 C   0  0  0  0  0  0  0  0  0  0  0  0
    3.5005    4.9050   14.1810 C   0  0  0  0  0  0  0  0  0  0  0  0
    2.6606    4.2107   13.1357 C   0  0  0  0  0  0  0  0  0  0  0  0
    3.2264    2.8600   12.6732 C   0  0  0  0  0  0  0  0  0  0  0  0
    2.1478    1.9314   12.4686 N   0  0  0  0  0  0  0  0  0  0  0  0
    2.6453    0.5544   12.5063 C   0  0  0  0  0  0  0  0  0  0  0  0
    1.4797   -0.3702   12.4964 C   0  0  0  0  0  0  0  0  0  0  0  0
    0.5532   -0.0740   11.3653 C   0  0  0  0  0  0  0  0  0  0  0  0
   -0.6183   -0.9993   11.3614 C   0  0  0  0  0  0  0  0  0  0  0  0
   -1.8484   -0.3331   10.9949 C   0  0  0  0  0  0  0  0  0  0  0  0
   -2.0391    1.0143   11.2049 C   0  0  0  0  0  0  0  0  0  0  0  0
   -0.9062    1.8154   11.8217 C   0  0  0  0  0  0  0  0  0  0  0  0
    0.2815    1.3795   11.0689 C   0  0  0  0  0  0  0  0  0  0  0  0
    1.5509    2.1230   11.1277 C   0  0  0  0  0  0  0  0  0  0  0  0
    2.5255    1.6695   10.0642 C   0  0  0  0  0  0  0  0  0  0  0  0
    2.1828    0.3135    9.5246 C   0  0  0  0  0  0  0  0  0  0  0  0
    1.2381   -0.4747   10.0840 C   0  0  0  0  0  0  0  0  0  0  0  0
    0.7880   -1.6578    9.6599 C   0  0  0  0  0  0  0  0  0  0  0  0
    1.3519   -2.1679    8.5029 C   0  0  0  0  0  0  0  0  0  0  0  0
    2.3453   -1.4223    7.8539 C   0  0  0  0  0  0  0  0  0  0  0  0
    2.7566   -0.1894    8.3618 C   0  0  0  0  0  0  0  0  0  0  0  0
    0.9271   -3.4067    8.0019 O   0  0  0  0  0  0  0  0  0  0  0  0
   -0.2258   -2.1158   10.5539 O   0  0  0  0  0  0  0  0  0  0  0  0
   -0.1256    1.3763    9.6837 O   0  0  0  0  0  0  0  0  0  0  0  0
   -3.2892    1.3712   10.7796 C   0  0  0  0  0  0  0  0  0  0  0  0
   -3.9585    2.5646   10.7606 C   0  0  0  0  0  0  0  0  0  0  0  0
   -5.2323    2.6206   10.2581 C   0  0  0  0  0  0  0  0  0  0  0  0
   -5.8441    1.4886    9.7740 C   0  0  0  0  0  0  0  0  0  0  0  0
   -5.1732    0.2929    9.7931 C   0  0  0  0  0  0  0  0  0  0  0  0
   -3.8935    0.2039   10.2899 C   0  0  0  0  0  0  0  0  0  0  0  0
   -3.0149   -0.7856   10.4311 N   0  0  0  0  0  0  0  0  0  0  0  0
  1  2  1  0
  2  3  1  0
  3  4  1  0
  4  5  1  0
  5  6  1  0
  6  7  1  0
  7  8  1  0
  8  9  1  0
  9 10  1  0
 10 11  2  0
 11 12  1  0
 12 13  1  0
 13 14  1  0
 14 15  1  0
 15 16  1  0
 16 17  2  0
 17 18  1  0
 18 19  2  0
 19 20  1  0
 20 21  2  0
 19 22  1  0
 18 23  1  0
 13 24  1  0
 11 25  1  0
 25 26  2  0
 26 27  1  0
 27 28  2  0
 28 29  1  0
 29 30  2  0
 30 31  1  0
  3  1  1  0
 14  5  1  0
 13  8  1  0
 17  8  1  0
 23  9  1  0
 31 10  1  0
 21 16  1  0
 30 25  1  0
M  END
$$$$
