
     RDKit          3D

 31 38  0  0  0  0  0  0  0  0999 V2000
   -0.5378    3.9662    6.2060 C   0  0  0  0  0  0  0  0  0  0  0  0
    0.1096    3.5438    4.9560 C   0  0  0  0  0  0  0  0  0  0  0  0
    0.6830    3.0788    6.2732 C   0  0  0  0  0  0  0  0  0  0  0  0
    0.5120    1.5754    6.5352 C   0  0  0  0  0  0  0  0  0  0  0  0
    0.7207    1.3036    7.9316 N   0  0  0  0  0  0  0  0  0  0  0  0
    2.1520    1.1938    8.2222 C   0  0  0  0  0  0  0  0  0  0  0  0
    2.3309    1.1181    9.6974 C   0  0  0  0  0  0  0  0  0  0  0  0
    1.4895    0.0425   10.2982 C   0  0  0  0  0  0  0  0  0  0  0  0
    1.6665   -0.0271   11.7788 C   0  0  0  0  0  0  0  0  0  0  0  0
    0.4267   -0.2988   12.4721 C   0  0  0  0  0  0  0  0  0  0  0  0
   -0.7963    0.0478   11.9428 C   0  0  0  0  0  0  0  0  0  0  0  0
   -0.8290    0.7157   10.5797 C   0  0  0  0  0  0  0  0  0  0  0  0
    0.0858   -0.1025    9.7666 C   0  0  0  0  0  0  0  0  0  0  0  0
    0.1193    0.0017    8.2983 C   0  0  0  0  0  0  0  0  0  0  0  0
    0.9085   -1.1227    7.6661 C   0  0  0  0  0  0  0  0  0  0  0  0
    1.8302   -1.7862    8.6448 C   0  0  0  0  0  0  0  0  0  0  0  0
    2.0625   -1.2869    9.8789 C   0  0  0  0  0  0  0  0  0  0  0  0
    2.7927   -1.8160   10.8634 C   0  0  0  0  0  0  0  0  0  0  0  0
    3.4077   -3.0300   10.6084 C   0  0  0  0  0  0  0  0  0  0  0  0
    3.2282   -3.6236    9.3518 C   0  0  0  0  0  0  0  0  0  0  0  0
    2.4436   -3.0053    8.3774 C   0  0  0  0  0  0  0  0  0  0  0  0
    4.1910   -3.6417   11.5976 O   0  0  0  0  0  0  0  0  0  0  0  0
    2.7409   -0.9497   11.9963 O   0  0  0  0  0  0  0  0  0  0  0  0
   -0.2559   -1.4719   10.0706 O   0  0  0  0  0  0  0  0  0  0  0  0
   -1.7894   -0.3126   12.8117 C   0  0  0  0  0  0  0  0  0  0  0  0
   -3.1522   -0.1986   12.7637 C   0  0  0  0  0  0  0  0  0  0  0  0
   -3.9095   -0.6649   13.8065 C   0  0  0  0  0  0  0  0  0  0  0  0
   -3.3125   -1.2452   14.9005 C   0  0  0  0  0  0  0  0  0  0  0  0
   -1.9469   -1.3592   14.9483 C   0  0  0  0  0  0  0  0  0  0  0  0
   -1.1590   -0.9020   13.9175 C   0  0  0  0  0  0  0  0  0  0  0  0
    0.1510   -0.8788   13.6849 N   0  0  0  0  0  0  0  0  0  0  0  0
  1  2  1  0
  2  3  1  0
  3  4  1  0
  4  5  1  0
  5  6  1  0
  6  7  1  0
  7  8  1  0
  8  9  1  0
  9 10  1  0
 10 11  2  0
 11 12  1  0
 12 13  1  0
 13 14  1  0
 14 15  1  0
 15 16  1  0
 16 17  2  0
 17 18  1  0
 18 19  2  0
 19 20  1  0
 20 21  2  0
 19 22  1  0
 18 23  1  0
 13 24  1  0
 11 25  1  0
 25 26  2  0
 26 27  1  0
 27 28  2  0
 28 29  1  0
 29 30  2  0
 30 31  1  0
  3  1  1  0
 14  5  1  0
 13  8  1  0
 17  8  1  0
 23  9  1  0
 31 10  1  0
 21 16  1  0
 30 25  1  0
M  END
$$$$
