
     RDKit          3D

 31 38  0  0  0  0  0  0  0  0999 V2000
   -2.5988    3.7461    6.3792 C   0  0  0  0  0  0  0  0  0  0  0  0
   -2.2656    2.5874    5.5387 C   0  0  0  0  0  0  0  0  0  0  0  0
   -1.3929    2.9060    6.7291 C   0  0  0  0  0  0  0  0  0  0  0  0
   -1.4897    1.8814    7.8690 C   0  0  0  0  0  0  0  0  0  0  0  0
   -0.2104    1.7567    8.5135 N   0  0  0  0  0  0  0  0  0  0  0  0
    0.8204    1.3967    7.5373 C   0  0  0  0  0  0  0  0  0  0  0  0
    2.1496    1.4785    8.2007 C   0  0  0  0  0  0  0  0  0  0  0  0
    2.1832    0.6840    9.4630 C   0  0  0  0  0  0  0  0  0  0  0  0
    3.5161    0.7727   10.1295 C   0  0  0  0  0  0  0  0  0  0  0  0
    3.4104    0.8514   11.5697 C   0  0  0  0  0  0  0  0  0  0  0  0
    2.2961    1.3679   12.1924 C   0  0  0  0  0  0  0  0  0  0  0  0
    1.1431    1.8456   11.3276 C   0  0  0  0  0  0  0  0  0  0  0  0
    0.9655    0.7598   10.3494 C   0  0  0  0  0  0  0  0  0  0  0  0
   -0.2408    0.6633    9.5108 C   0  0  0  0  0  0  0  0  0  0  0  0
   -0.3377   -0.6705    8.8050 C   0  0  0  0  0  0  0  0  0  0  0  0
    0.9843   -1.3748    8.7433 C   0  0  0  0  0  0  0  0  0  0  0  0
    2.1441   -0.7772    9.0957 C   0  0  0  0  0  0  0  0  0  0  0  0
    3.3659   -1.3114    9.1597 C   0  0  0  0  0  0  0  0  0  0  0  0
    3.4874   -2.6477    8.8185 C   0  0  0  0  0  0  0  0  0  0  0  0
    2.3376   -3.3505    8.4341 C   0  0  0  0  0  0  0  0  0  0  0  0
    1.0945   -2.7175    8.3980 C   0  0  0  0  0  0  0  0  0  0  0  0
    4.7421   -3.2721    8.8620 O   0  0  0  0  0  0  0  0  0  0  0  0
    4.2861   -0.3129    9.5992 O   0  0  0  0  0  0  0  0  0  0  0  0
    1.0258   -0.4601   11.1193 O   0  0  0  0  0  0  0  0  0  0  0  0
    2.4725    1.3331   13.5484 C   0  0  0  0  0  0  0  0  0  0  0  0
    1.6819    1.7149   14.5981 C   0  0  0  0  0  0  0  0  0  0  0  0
    2.1330    1.5519   15.8819 C   0  0  0  0  0  0  0  0  0  0  0  0
    3.3727    1.0095   16.1247 C   0  0  0  0  0  0  0  0  0  0  0  0
    4.1646    0.6271   15.0726 C   0  0  0  0  0  0  0  0  0  0  0  0
    3.7404    0.7765   13.7726 C   0  0  0  0  0  0  0  0  0  0  0  0
    4.2683    0.5023   12.5823 N   0  0  0  0  0  0  0  0  0  0  0  0
  1  2  1  0
  2  3  1  0
  3  4  1  0
  4  5  1  0
  5  6  1  0
  6  7  1  0
  7  8  1  0
  8  9  1  0
  9 10  1  0
 10 11  2  0
 11 12  1  0
 12 13  1  0
 13 14  1  0
 14 15  1  0
 15 16  1  0
 16 17  2  0
 17 18  1  0
 18 19  2  0
 19 20  1  0
 20 21  2  0
 19 22  1  0
 18 23  1  0
 13 24  1  0
 11 25  1  0
 25 26  2  0
 26 27  1  0
 27 28  2  0
 28 29  1  0
 29 30  2  0
 30 31  1  0
  3  1  1  0
 14  5  1  0
 13  8  1  0
 17  8  1  0
 23  9  1  0
 31 10  1  0
 21 16  1  0
 30 25  1  0
M  END
$$$$
