
     RDKit          3D

 31 38  0  0  0  0  0  0  0  0999 V2000
   -1.3793    3.9028    5.7892 C   0  0  0  0  0  0  0  0  0  0  0  0
   -0.4146    3.4048    4.7986 C   0  0  0  0  0  0  0  0  0  0  0  0
   -0.1617    3.1451    6.2644 C   0  0  0  0  0  0  0  0  0  0  0  0
   -0.2995    1.6711    6.6725 C   0  0  0  0  0  0  0  0  0  0  0  0
    0.4486    1.4335    7.8772 N   0  0  0  0  0  0  0  0  0  0  0  0
    1.8573    1.1844    7.5630 C   0  0  0  0  0  0  0  0  0  0  0  0
    2.6267    1.1478    8.8359 C   0  0  0  0  0  0  0  0  0  0  0  0
    2.0283    0.1916    9.8122 C   0  0  0  0  0  0  0  0  0  0  0  0
    2.7989    0.1615   11.0904 C   0  0  0  0  0  0  0  0  0  0  0  0
    1.9424    0.0499   12.2503 C   0  0  0  0  0  0  0  0  0  0  0  0
    0.6421    0.5029   12.2435 C   0  0  0  0  0  0  0  0  0  0  0  0
    0.0990    1.1168   10.9654 C   0  0  0  0  0  0  0  0  0  0  0  0
    0.5240    0.1753    9.9164 C   0  0  0  0  0  0  0  0  0  0  0  0
   -0.0479    0.2179    8.5604 C   0  0  0  0  0  0  0  0  0  0  0  0
    0.3139   -1.0075    7.7516 C   0  0  0  0  0  0  0  0  0  0  0  0
    1.5028   -1.7260    8.3155 C   0  0  0  0  0  0  0  0  0  0  0  0
    2.2665   -1.2063    9.3018 C   0  0  0  0  0  0  0  0  0  0  0  0
    3.2950   -1.7709    9.9388 C   0  0  0  0  0  0  0  0  0  0  0  0
    3.6489   -3.0521    9.5514 C   0  0  0  0  0  0  0  0  0  0  0  0
    2.9161   -3.6721    8.5304 C   0  0  0  0  0  0  0  0  0  0  0  0
    1.8496   -3.0128    7.9177 C   0  0  0  0  0  0  0  0  0  0  0  0
    4.7208   -3.7041   10.1774 O   0  0  0  0  0  0  0  0  0  0  0  0
    3.7887   -0.8603   10.9206 O   0  0  0  0  0  0  0  0  0  0  0  0
    0.2312   -1.1374   10.4415 O   0  0  0  0  0  0  0  0  0  0  0  0
    0.0751    0.2839   13.4689 C   0  0  0  0  0  0  0  0  0  0  0  0
   -1.1703    0.5395   13.9751 C   0  0  0  0  0  0  0  0  0  0  0  0
   -1.4600    0.1970   15.2702 C   0  0  0  0  0  0  0  0  0  0  0  0
   -0.5107   -0.3999   16.0654 C   0  0  0  0  0  0  0  0  0  0  0  0
    0.7371   -0.6559   15.5578 C   0  0  0  0  0  0  0  0  0  0  0  0
    1.0588   -0.3253   14.2618 C   0  0  0  0  0  0  0  0  0  0  0  0
    2.1506   -0.4499   13.5114 N   0  0  0  0  0  0  0  0  0  0  0  0
  1  2  1  0
  2  3  1  0
  3  4  1  0
  4  5  1  0
  5  6  1  0
  6  7  1  0
  7  8  1  0
  8  9  1  0
  9 10  1  0
 10 11  2  0
 11 12  1  0
 12 13  1  0
 13 14  1  0
 14 15  1  0
 15 16  1  0
 16 17  2  0
 17 18  1  0
 18 19  2  0
 19 20  1  0
 20 21  2  0
 19 22  1  0
 18 23  1  0
 13 24  1  0
 11 25  1  0
 25 26  2  0
 26 27  1  0
 27 28  2  0
 28 29  1  0
 29 30  2  0
 30 31  1  0
  3  1  1  0
 14  5  1  0
 13  8  1  0
 17  8  1  0
 23  9  1  0
 31 10  1  0
 21 16  1  0
 30 25  1  0
M  END
$$$$
