
     RDKit          3D

 31 38  0  0  0  0  0  0  0  0999 V2000
    1.6025    3.7440    5.7865 C   0  0  0  0  0  0  0  0  0  0  0  0
    0.9652    2.9414    4.7331 C   0  0  0  0  0  0  0  0  0  0  0  0
    1.2440    2.3047    6.0735 C   0  0  0  0  0  0  0  0  0  0  0  0
   -0.0168    1.9876    6.8910 C   0  0  0  0  0  0  0  0  0  0  0  0
    0.3565    1.6387    8.2350 N   0  0  0  0  0  0  0  0  0  0  0  0
    1.8147    1.6021    8.3669 C   0  0  0  0  0  0  0  0  0  0  0  0
    2.1557    1.4413    9.8062 C   0  0  0  0  0  0  0  0  0  0  0  0
    1.4466    0.2769   10.4120 C   0  0  0  0  0  0  0  0  0  0  0  0
    1.7859    0.1217   11.8574 C   0  0  0  0  0  0  0  0  0  0  0  0
    0.6456   -0.2739   12.6541 C   0  0  0  0  0  0  0  0  0  0  0  0
   -0.6450    0.0275   12.2809 C   0  0  0  0  0  0  0  0  0  0  0  0
   -0.8626    0.7800   10.9801 C   0  0  0  0  0  0  0  0  0  0  0  0
    0.0042    0.0773   10.0197 C   0  0  0  0  0  0  0  0  0  0  0  0
   -0.1268    0.2797    8.5673 C   0  0  0  0  0  0  0  0  0  0  0  0
    0.6521   -0.7479    7.7773 C   0  0  0  0  0  0  0  0  0  0  0  0
    1.7103   -1.4137    8.6047 C   0  0  0  0  0  0  0  0  0  0  0  0
    2.0456   -0.9826    9.8408 C   0  0  0  0  0  0  0  0  0  0  0  0
    2.9066   -1.5274   10.7035 C   0  0  0  0  0  0  0  0  0  0  0  0
    3.5585   -2.6800   10.2994 C   0  0  0  0  0  0  0  0  0  0  0  0
    3.2785   -3.2001    9.0286 C   0  0  0  0  0  0  0  0  0  0  0  0
    2.3596   -2.5708    8.1879 C   0  0  0  0  0  0  0  0  0  0  0  0
    4.4774   -3.3038   11.1553 O   0  0  0  0  0  0  0  0  0  0  0  0
    2.9282   -0.7423   11.8952 O   0  0  0  0  0  0  0  0  0  0  0  0
   -0.2243   -1.3282   10.2581 O   0  0  0  0  0  0  0  0  0  0  0  0
   -1.5165   -0.4521   13.2198 C   0  0  0  0  0  0  0  0  0  0  0  0
   -2.8808   -0.4228   13.3217 C   0  0  0  0  0  0  0  0  0  0  0  0
   -3.4935   -1.0042   14.4010 C   0  0  0  0  0  0  0  0  0  0  0  0
   -2.7499   -1.6156   15.3826 C   0  0  0  0  0  0  0  0  0  0  0  0
   -1.3829   -1.6447   15.2801 C   0  0  0  0  0  0  0  0  0  0  0  0
   -0.7381   -1.0712   14.2088 C   0  0  0  0  0  0  0  0  0  0  0  0
    0.5358   -0.9487   13.8440 N   0  0  0  0  0  0  0  0  0  0  0  0
  1  2  1  0
  2  3  1  0
  3  4  1  0
  4  5  1  0
  5  6  1  0
  6  7  1  0
  7  8  1  0
  8  9  1  0
  9 10  1  0
 10 11  2  0
 11 12  1  0
 12 13  1  0
 13 14  1  0
 14 15  1  0
 15 16  1  0
 16 17  2  0
 17 18  1  0
 18 19  2  0
 19 20  1  0
 20 21  2  0
 19 22  1  0
 18 23  1  0
 13 24  1  0
 11 25  1  0
 25 26  2  0
 26 27  1  0
 27 28  2  0
 28 29  1  0
 29 30  2  0
 30 31  1  0
  3  1  1  0
 14  5  1  0
 13  8  1  0
 17  8  1  0
 23  9  1  0
 31 10  1  0
 21 16  1  0
 30 25  1  0
M  END
$$$$
