
     RDKit          3D

 31 38  0  0  0  0  0  0  0  0999 V2000
   -0.9419    4.2085    5.6761 C   0  0  0  0  0  0  0  0  0  0  0  0
    0.5011    4.0506    5.4465 C   0  0  0  0  0  0  0  0  0  0  0  0
   -0.1021    3.5146    6.7228 C   0  0  0  0  0  0  0  0  0  0  0  0
   -0.1192    1.9816    6.8122 C   0  0  0  0  0  0  0  0  0  0  0  0
    0.2727    1.5724    8.1337 N   0  0  0  0  0  0  0  0  0  0  0  0
    1.7318    1.5810    8.2595 C   0  0  0  0  0  0  0  0  0  0  0  0
    2.0852    1.3531    9.6867 C   0  0  0  0  0  0  0  0  0  0  0  0
    1.4209    0.1322   10.2288 C   0  0  0  0  0  0  0  0  0  0  0  0
    1.7724   -0.0906   11.6624 C   0  0  0  0  0  0  0  0  0  0  0  0
    0.6507   -0.5703   12.4390 C   0  0  0  0  0  0  0  0  0  0  0  0
   -0.6516   -0.2952   12.0867 C   0  0  0  0  0  0  0  0  0  0  0  0
   -0.9020    0.5199   10.8303 C   0  0  0  0  0  0  0  0  0  0  0  0
   -0.0153   -0.0970    9.8300 C   0  0  0  0  0  0  0  0  0  0  0  0
   -0.1603    0.1806    8.3914 C   0  0  0  0  0  0  0  0  0  0  0  0
    0.6511   -0.7729    7.5434 C   0  0  0  0  0  0  0  0  0  0  0  0
    1.7362   -1.4451    8.3297 C   0  0  0  0  0  0  0  0  0  0  0  0
    2.0618   -1.0714    9.5869 C   0  0  0  0  0  0  0  0  0  0  0  0
    2.9457   -1.6319   10.4157 C   0  0  0  0  0  0  0  0  0  0  0  0
    3.6365   -2.7362    9.9464 C   0  0  0  0  0  0  0  0  0  0  0  0
    3.3692   -3.1949    8.6495 C   0  0  0  0  0  0  0  0  0  0  0  0
    2.4244   -2.5534    7.8475 C   0  0  0  0  0  0  0  0  0  0  0  0
    4.5811   -3.3730   10.7638 O   0  0  0  0  0  0  0  0  0  0  0  0
    2.9450   -0.9138   11.6491 O   0  0  0  0  0  0  0  0  0  0  0  0
   -0.1924   -1.5209    9.9906 O   0  0  0  0  0  0  0  0  0  0  0  0
   -1.5009   -0.8570   12.9999 C   0  0  0  0  0  0  0  0  0  0  0  0
   -2.8649   -0.8824   13.1070 C   0  0  0  0  0  0  0  0  0  0  0  0
   -3.4514   -1.5444   14.1541 C   0  0  0  0  0  0  0  0  0  0  0  0
   -2.6818   -2.1820   15.0982 C   0  0  0  0  0  0  0  0  0  0  0  0
   -1.3151   -2.1564   14.9905 C   0  0  0  0  0  0  0  0  0  0  0  0
   -0.6962   -1.5016   13.9509 C   0  0  0  0  0  0  0  0  0  0  0  0
    0.5707   -1.3135   13.5899 N   0  0  0  0  0  0  0  0  0  0  0  0
  1  2  1  0
  2  3  1  0
  3  4  1  0
  4  5  1  0
  5  6  1  0
  6  7  1  0
  7  8  1  0
  8  9  1  0
  9 10  1  0
 10 11  2  0
 11 12  1  0
 12 13  1  0
 13 14  1  0
 14 15  1  0
 15 16  1  0
 16 17  2  0
 17 18  1  0
 18 19  2  0
 19 20  1  0
 20 21  2  0
 19 22  1  0
 18 23  1  0
 13 24  1  0
 11 25  1  0
 25 26  2  0
 26 27  1  0
 27 28  2  0
 28 29  1  0
 29 30  2  0
 30 31  1  0
  3  1  1  0
 14  5  1  0
 13  8  1  0
 17  8  1  0
 23  9  1  0
 31 10  1  0
 21 16  1  0
 30 25  1  0
M  END
$$$$
