
     RDKit          3D

 31 38  0  0  0  0  0  0  0  0999 V2000
    0.0202    3.8874    5.3450 C   0  0  0  0  0  0  0  0  0  0  0  0
    1.0617    2.8818    5.0923 C   0  0  0  0  0  0  0  0  0  0  0  0
    0.4681    2.9919    6.4763 C   0  0  0  0  0  0  0  0  0  0  0  0
   -0.4018    1.7933    6.8822 C   0  0  0  0  0  0  0  0  0  0  0  0
   -0.0683    1.3883    8.2210 N   0  0  0  0  0  0  0  0  0  0  0  0
    1.3816    1.4355    8.4226 C   0  0  0  0  0  0  0  0  0  0  0  0
    1.6662    1.2102    9.8655 C   0  0  0  0  0  0  0  0  0  0  0  0
    1.0080   -0.0308   10.3680 C   0  0  0  0  0  0  0  0  0  0  0  0
    1.2904   -0.2510   11.8172 C   0  0  0  0  0  0  0  0  0  0  0  0
    0.1433   -0.7646   12.5326 C   0  0  0  0  0  0  0  0  0  0  0  0
   -1.1460   -0.5229   12.1138 C   0  0  0  0  0  0  0  0  0  0  0  0
   -1.3527    0.2913   10.8489 C   0  0  0  0  0  0  0  0  0  0  0  0
   -0.3987   -0.2966    9.8941 C   0  0  0  0  0  0  0  0  0  0  0  0
   -0.4762   -0.0159    8.4508 C   0  0  0  0  0  0  0  0  0  0  0  0
    0.4038   -0.9431    7.6430 C   0  0  0  0  0  0  0  0  0  0  0  0
    1.4644   -1.5897    8.4824 C   0  0  0  0  0  0  0  0  0  0  0  0
    1.7139   -1.2135    9.7563 C   0  0  0  0  0  0  0  0  0  0  0  0
    2.5684   -1.7541   10.6280 C   0  0  0  0  0  0  0  0  0  0  0  0
    3.3123   -2.8371   10.1915 C   0  0  0  0  0  0  0  0  0  0  0  0
    3.1254   -3.2964    8.8808 C   0  0  0  0  0  0  0  0  0  0  0  0
    2.2066   -2.6766    8.0330 C   0  0  0  0  0  0  0  0  0  0  0  0
    4.2300   -3.4523   11.0548 O   0  0  0  0  0  0  0  0  0  0  0  0
    2.4840   -1.0423   11.8622 O   0  0  0  0  0  0  0  0  0  0  0  0
   -0.5452   -1.7255   10.0402 O   0  0  0  0  0  0  0  0  0  0  0  0
   -2.0261   -1.1119   12.9795 C   0  0  0  0  0  0  0  0  0  0  0  0
   -3.3927   -1.1745   13.0153 C   0  0  0  0  0  0  0  0  0  0  0  0
   -4.0146   -1.8571   14.0280 C   0  0  0  0  0  0  0  0  0  0  0  0
   -3.2782   -2.4784   15.0087 C   0  0  0  0  0  0  0  0  0  0  0  0
   -1.9089   -2.4155   14.9725 C   0  0  0  0  0  0  0  0  0  0  0  0
   -1.2548   -1.7392   13.9689 C   0  0  0  0  0  0  0  0  0  0  0  0
    0.0236   -1.5153   13.6752 N   0  0  0  0  0  0  0  0  0  0  0  0
  1  2  1  0
  2  3  1  0
  3  4  1  0
  4  5  1  0
  5  6  1  0
  6  7  1  0
  7  8  1  0
  8  9  1  0
  9 10  1  0
 10 11  2  0
 11 12  1  0
 12 13  1  0
 13 14  1  0
 14 15  1  0
 15 16  1  0
 16 17  2  0
 17 18  1  0
 18 19  2  0
 19 20  1  0
 20 21  2  0
 19 22  1  0
 18 23  1  0
 13 24  1  0
 11 25  1  0
 25 26  2  0
 26 27  1  0
 27 28  2  0
 28 29  1  0
 29 30  2  0
 30 31  1  0
  3  1  1  0
 14  5  1  0
 13  8  1  0
 17  8  1  0
 23  9  1  0
 31 10  1  0
 21 16  1  0
 30 25  1  0
M  END
$$$$
