
     RDKit          3D

 31 38  0  0  0  0  0  0  0  0999 V2000
   -1.5918    4.1739    6.3534 C   0  0  0  0  0  0  0  0  0  0  0  0
   -1.5324    3.1202    5.3306 C   0  0  0  0  0  0  0  0  0  0  0  0
   -0.6079    3.0399    6.5218 C   0  0  0  0  0  0  0  0  0  0  0  0
   -0.9329    1.8940    7.4911 C   0  0  0  0  0  0  0  0  0  0  0  0
    0.2155    1.6168    8.3106 N   0  0  0  0  0  0  0  0  0  0  0  0
    1.4088    1.4498    7.4780 C   0  0  0  0  0  0  0  0  0  0  0  0
    2.5989    1.3698    8.3673 C   0  0  0  0  0  0  0  0  0  0  0  0
    2.4265    0.3304    9.4235 C   0  0  0  0  0  0  0  0  0  0  0  0
    3.6195    0.2566   10.3178 C   0  0  0  0  0  0  0  0  0  0  0  0
    3.2610    0.0367   11.7016 C   0  0  0  0  0  0  0  0  0  0  0  0
    2.0445    0.4315   12.2117 C   0  0  0  0  0  0  0  0  0  0  0  0
    1.0517    1.0975   11.2754 C   0  0  0  0  0  0  0  0  0  0  0  0
    1.0708    0.2413   10.0780 C   0  0  0  0  0  0  0  0  0  0  0  0
    0.0327    0.3411    9.0387 C   0  0  0  0  0  0  0  0  0  0  0  0
    0.0883   -0.8156    8.0662 C   0  0  0  0  0  0  0  0  0  0  0  0
    1.4146   -1.5139    8.0937 C   0  0  0  0  0  0  0  0  0  0  0  0
    2.4821   -1.0220    8.7606 C   0  0  0  0  0  0  0  0  0  0  0  0
    3.6843   -1.5783    8.9266 C   0  0  0  0  0  0  0  0  0  0  0  0
    3.8910   -2.8167    8.3430 C   0  0  0  0  0  0  0  0  0  0  0  0
    2.8410   -3.4051    7.6252 C   0  0  0  0  0  0  0  0  0  0  0  0
    1.6110   -2.7575    7.5027 C   0  0  0  0  0  0  0  0  0  0  0  0
    5.1309   -3.4576    8.4763 O   0  0  0  0  0  0  0  0  0  0  0  0
    4.4926   -0.7083    9.7182 O   0  0  0  0  0  0  0  0  0  0  0  0
    1.0197   -1.1126   10.5770 O   0  0  0  0  0  0  0  0  0  0  0  0
    1.9807    0.1134   13.5405 C   0  0  0  0  0  0  0  0  0  0  0  0
    1.0105    0.2824   14.4906 C   0  0  0  0  0  0  0  0  0  0  0  0
    1.2323   -0.1508   15.7718 C   0  0  0  0  0  0  0  0  0  0  0  0
    2.4209   -0.7526   16.1113 C   0  0  0  0  0  0  0  0  0  0  0  0
    3.3928   -0.9218   15.1590 C   0  0  0  0  0  0  0  0  0  0  0  0
    3.2005   -0.4989   13.8642 C   0  0  0  0  0  0  0  0  0  0  0  0
    3.9347   -0.5292   12.7548 N   0  0  0  0  0  0  0  0  0  0  0  0
  1  2  1  0
  2  3  1  0
  3  4  1  0
  4  5  1  0
  5  6  1  0
  6  7  1  0
  7  8  1  0
  8  9  1  0
  9 10  1  0
 10 11  2  0
 11 12  1  0
 12 13  1  0
 13 14  1  0
 14 15  1  0
 15 16  1  0
 16 17  2  0
 17 18  1  0
 18 19  2  0
 19 20  1  0
 20 21  2  0
 19 22  1  0
 18 23  1  0
 13 24  1  0
 11 25  1  0
 25 26  2  0
 26 27  1  0
 27 28  2  0
 28 29  1  0
 29 30  2  0
 30 31  1  0
  3  1  1  0
 14  5  1  0
 13  8  1  0
 17  8  1  0
 23  9  1  0
 31 10  1  0
 21 16  1  0
 30 25  1  0
M  END
$$$$
