
     RDKit          3D

 39 43  0  0  0  0  0  0  0  0999 V2000
    0.5179    3.0840   18.0075 C   0  0  0  0  0  0  0  0  0  0  0  0
    1.4060    4.1088   18.5650 N   0  0  0  0  0  0  0  0  0  0  0  0
    2.0576    5.1132   17.9761 C   0  0  0  0  0  0  0  0  0  0  0  0
    2.7071    5.7973   18.9806 C   0  0  0  0  0  0  0  0  0  0  0  0
    2.4254    5.1728   20.1755 C   0  0  0  0  0  0  0  0  0  0  0  0
    1.6240    4.1408   19.8765 N   0  0  0  0  0  0  0  0  0  0  0  0
    2.0264    5.4577   16.5740 C   0  0  0  0  0  0  0  0  0  0  0  0
    2.2666    4.5502   15.6077 N   0  0  0  0  0  0  0  0  0  0  0  0
    2.2366    4.8242   14.3265 N   0  0  0  0  0  0  0  0  0  0  0  0
    1.9522    6.0800   13.8725 C   0  0  0  0  0  0  0  0  0  0  0  0
    1.6999    7.0403   14.8125 C   0  0  0  0  0  0  0  0  0  0  0  0
    1.4019    8.3256   14.4315 C   0  0  0  0  0  0  0  0  0  0  0  0
    1.1375    9.2896   15.3676 C   0  0  0  0  0  0  0  0  0  0  0  0
    1.1656    8.9899   16.7043 C   0  0  0  0  0  0  0  0  0  0  0  0
    1.4619    7.7130   17.1455 C   0  0  0  0  0  0  0  0  0  0  0  0
    1.7297    6.7504   16.1909 C   0  0  0  0  0  0  0  0  0  0  0  0
    1.8794    6.3387   12.4846 N   0  0  0  0  0  0  0  0  0  0  0  0
    3.0483    6.2341   11.6343 C   0  0  0  0  0  0  0  0  0  0  0  0
    2.7884    6.8802   10.2837 C   0  0  0  0  0  0  0  0  0  0  0  0
    1.5734    6.3092    9.5874 C   0  0  0  0  0  0  0  0  0  0  0  0
    0.5085    5.9408   10.5533 C   0  0  0  0  0  0  0  0  0  0  0  0
    0.6591    6.7438   11.8188 C   0  0  0  0  0  0  0  0  0  0  0  0
    1.9436    5.2804    8.6353 N   0  0  0  0  0  0  0  0  0  0  0  0
    1.7531    3.9012    9.0185 C   0  0  0  0  0  0  0  0  0  0  0  0
    2.4940    5.5402    7.3568 C   0  0  0  0  0  0  0  0  0  0  0  0
    2.8697    4.5287    6.6779 O   0  0  0  0  0  0  0  0  0  0  0  0
    2.6566    6.8574    6.7835 C   0  0  0  0  0  0  0  0  0  0  0  0
    3.5216    7.1624    5.7569 C   0  0  0  0  0  0  0  0  0  0  0  0
    3.6034    8.4481    5.2360 C   0  0  0  0  0  0  0  0  0  0  0  0
    2.8232    9.4655    5.7275 C   0  0  0  0  0  0  0  0  0  0  0  0
    1.9560    9.1742    6.7533 C   0  0  0  0  0  0  0  0  0  0  0  0
    1.8756    7.8976    7.2689 C   0  0  0  0  0  0  0  0  0  0  0  0
    2.9343   10.7746    5.1672 N   0  0  0  0  0  4  0  0  0  0  0  0
    2.2262   11.7112    5.5774 O   0  0  0  0  0  0  0  0  0  0  0  0
    3.8243   11.0212    4.1668 O   0  0  0  0  0  1  0  0  0  0  0  0
    4.4003    6.1277    5.2125 C   0  0  0  0  0  0  0  0  0  0  0  0
    3.7997    4.9242    4.9481 F   0  0  0  0  0  0  0  0  0  0  0  0
    5.5442    5.9516    6.0084 F   0  0  0  0  0  0  0  0  0  0  0  0
    4.9262    6.5444    3.9797 F   0  0  0  0  0  0  0  0  0  0  0  0
  1  2  1  0
  2  3  1  0
  3  4  2  0
  4  5  1  0
  5  6  2  0
  3  7  1  0
  7  8  2  0
  8  9  1  0
  9 10  2  0
 10 11  1  0
 11 12  2  0
 12 13  1  0
 13 14  2  0
 14 15  1  0
 15 16  2  0
 10 17  1  0
 17 18  1  0
 18 19  1  0
 19 20  1  0
 20 21  1  0
 21 22  1  0
 20 23  1  0
 23 24  1  0
 23 25  1  0
 25 26  2  0
 25 27  1  0
 27 28  2  0
 28 29  1  0
 29 30  2  0
 30 31  1  0
 31 32  2  0
 30 33  1  0
 33 34  2  0
 33 35  1  0
 28 36  1  0
 36 37  1  0
 36 38  1  0
 36 39  1  0
  6  2  1  0
 16  7  1  0
 16 11  1  0
 22 17  1  0
 32 27  1  0
M  CHG  2  33   1  35  -1
M  END
$$$$
