
     RDKit          3D

 39 43  0  0  0  0  0  0  0  0999 V2000
    3.6080    8.7417   16.7686 C   0  0  0  0  0  0  0  0  0  0  0  0
    2.3724    8.1628   17.3052 N   0  0  0  0  0  0  0  0  0  0  0  0
    1.3391    7.5862   16.6887 C   0  0  0  0  0  0  0  0  0  0  0  0
    0.4741    7.1768   17.6802 C   0  0  0  0  0  0  0  0  0  0  0  0
    1.0195    7.5264   18.8957 C   0  0  0  0  0  0  0  0  0  0  0  0
    2.1846    8.1297   18.6213 N   0  0  0  0  0  0  0  0  0  0  0  0
    1.1936    7.3685   15.2685 C   0  0  0  0  0  0  0  0  0  0  0  0
    1.5100    8.3141   14.3626 N   0  0  0  0  0  0  0  0  0  0  0  0
    1.4008    8.1483   13.0672 N   0  0  0  0  0  0  0  0  0  0  0  0
    0.9480    6.9757   12.5343 C   0  0  0  0  0  0  0  0  0  0  0  0
    0.6128    5.9811   13.4106 C   0  0  0  0  0  0  0  0  0  0  0  0
    0.1540    4.7721   12.9485 C   0  0  0  0  0  0  0  0  0  0  0  0
   -0.1731    3.7679   13.8204 C   0  0  0  0  0  0  0  0  0  0  0  0
   -0.0489    3.9507   15.1727 C   0  0  0  0  0  0  0  0  0  0  0  0
    0.4059    5.1482   15.6943 C   0  0  0  0  0  0  0  0  0  0  0  0
    0.7297    6.1541   14.8039 C   0  0  0  0  0  0  0  0  0  0  0  0
    0.8844    6.8054   11.1323 N   0  0  0  0  0  0  0  0  0  0  0  0
   -0.0855    7.5208   10.3275 C   0  0  0  0  0  0  0  0  0  0  0  0
   -0.1746    6.9195    8.9349 C   0  0  0  0  0  0  0  0  0  0  0  0
    1.1641    6.8709    8.2331 C   0  0  0  0  0  0  0  0  0  0  0  0
    2.2740    6.6106    9.1834 C   0  0  0  0  0  0  0  0  0  0  0  0
    1.7517    5.9019   10.4056 C   0  0  0  0  0  0  0  0  0  0  0  0
    1.3422    8.0094    7.3531 N   0  0  0  0  0  0  0  0  0  0  0  0
    1.0680    9.3249    7.8819 C   0  0  0  0  0  0  0  0  0  0  0  0
    1.7549    7.9139    6.0020 C   0  0  0  0  0  0  0  0  0  0  0  0
    1.8356    9.0056    5.3486 O   0  0  0  0  0  0  0  0  0  0  0  0
    2.0822    6.6778    5.3273 C   0  0  0  0  0  0  0  0  0  0  0  0
    3.1725    6.5000    4.5058 C   0  0  0  0  0  0  0  0  0  0  0  0
    3.4405    5.2722    3.9128 C   0  0  0  0  0  0  0  0  0  0  0  0
    2.6253    4.1876    4.1237 C   0  0  0  0  0  0  0  0  0  0  0  0
    1.5327    4.3523    4.9412 C   0  0  0  0  0  0  0  0  0  0  0  0
    1.2684    5.5714    5.5294 C   0  0  0  0  0  0  0  0  0  0  0  0
    2.9321    2.9411    3.4975 N   0  0  0  0  0  4  0  0  0  0  0  0
    3.9510    2.8079    2.7968 O   0  0  0  0  0  0  0  0  0  0  0  0
    2.1079    1.8694    3.6583 O   0  0  0  0  0  1  0  0  0  0  0  0
    4.0603    7.6264    4.2188 C   0  0  0  0  0  0  0  0  0  0  0  0
    4.7498    8.1219    5.2949 F   0  0  0  0  0  0  0  0  0  0  0  0
    3.3856    8.6548    3.5405 F   0  0  0  0  0  0  0  0  0  0  0  0
    5.0525    7.2351    3.3065 F   0  0  0  0  0  0  0  0  0  0  0  0
  1  2  1  0
  2  3  1  0
  3  4  2  0
  4  5  1  0
  5  6  2  0
  3  7  1  0
  7  8  2  0
  8  9  1  0
  9 10  2  0
 10 11  1  0
 11 12  2  0
 12 13  1  0
 13 14  2  0
 14 15  1  0
 15 16  2  0
 10 17  1  0
 17 18  1  0
 18 19  1  0
 19 20  1  0
 20 21  1  0
 21 22  1  0
 20 23  1  0
 23 24  1  0
 23 25  1  0
 25 26  2  0
 25 27  1  0
 27 28  2  0
 28 29  1  0
 29 30  2  0
 30 31  1  0
 31 32  2  0
 30 33  1  0
 33 34  2  0
 33 35  1  0
 28 36  1  0
 36 37  1  0
 36 38  1  0
 36 39  1  0
  6  2  1  0
 16  7  1  0
 16 11  1  0
 22 17  1  0
 32 27  1  0
M  CHG  2  33   1  35  -1
M  END
$$$$
