
     RDKit          3D

 39 43  0  0  0  0  0  0  0  0999 V2000
    0.5386    2.6621   15.0535 C   0  0  0  0  0  0  0  0  0  0  0  0
    0.5284    3.9832   15.6893 N   0  0  0  0  0  0  0  0  0  0  0  0
    0.8477    5.1860   15.2081 C   0  0  0  0  0  0  0  0  0  0  0  0
    0.6067    6.0870   16.2225 C   0  0  0  0  0  0  0  0  0  0  0  0
    0.1396    5.3885   17.3138 C   0  0  0  0  0  0  0  0  0  0  0  0
    0.1067    4.1002   16.9451 N   0  0  0  0  0  0  0  0  0  0  0  0
    1.2870    5.4898   13.8664 C   0  0  0  0  0  0  0  0  0  0  0  0
    1.6717    4.5292   13.0036 N   0  0  0  0  0  0  0  0  0  0  0  0
    2.0659    4.7667   11.7766 N   0  0  0  0  0  0  0  0  0  0  0  0
    2.1141    6.0362   11.2764 C   0  0  0  0  0  0  0  0  0  0  0  0
    1.7334    7.0500   12.1112 C   0  0  0  0  0  0  0  0  0  0  0  0
    1.7513    8.3526   11.6770 C   0  0  0  0  0  0  0  0  0  0  0  0
    1.3609    9.3716   12.5045 C   0  0  0  0  0  0  0  0  0  0  0  0
    0.9446    9.1106   13.7835 C   0  0  0  0  0  0  0  0  0  0  0  0
    0.9084    7.8182   14.2748 C   0  0  0  0  0  0  0  0  0  0  0  0
    1.3077    6.7996   13.4306 C   0  0  0  0  0  0  0  0  0  0  0  0
    2.4976    6.2615    9.9345 N   0  0  0  0  0  0  0  0  0  0  0  0
    1.9923    5.4363    8.8556 C   0  0  0  0  0  0  0  0  0  0  0  0
    2.8010    5.6565    7.5882 C   0  0  0  0  0  0  0  0  0  0  0  0
    2.8455    7.1087    7.1687 C   0  0  0  0  0  0  0  0  0  0  0  0
    2.8691    8.0190    8.3407 C   0  0  0  0  0  0  0  0  0  0  0  0
    3.4264    7.3004    9.5415 C   0  0  0  0  0  0  0  0  0  0  0  0
    1.8413    7.4007    6.1644 N   0  0  0  0  0  0  0  0  0  0  0  0
    0.5226    7.7804    6.6140 C   0  0  0  0  0  0  0  0  0  0  0  0
    2.0662    7.3241    4.7686 C   0  0  0  0  0  0  0  0  0  0  0  0
    1.0389    7.3992    4.0173 O   0  0  0  0  0  0  0  0  0  0  0  0
    3.3642    7.1660    4.1519 C   0  0  0  0  0  0  0  0  0  0  0  0
    3.8340    5.9920    3.6078 C   0  0  0  0  0  0  0  0  0  0  0  0
    5.0838    5.9221    3.0043 C   0  0  0  0  0  0  0  0  0  0  0  0
    5.8996    7.0239    2.9287 C   0  0  0  0  0  0  0  0  0  0  0  0
    5.4426    8.2021    3.4692 C   0  0  0  0  0  0  0  0  0  0  0  0
    4.2017    8.2700    4.0674 C   0  0  0  0  0  0  0  0  0  0  0  0
    7.1779    6.9145    2.3009 N   0  0  0  0  0  4  0  0  0  0  0  0
    7.9669    7.8757    2.2784 O   0  0  0  0  0  0  0  0  0  0  0  0
    7.5572    5.7471    1.7119 O   0  0  0  0  0  1  0  0  0  0  0  0
    3.0233    4.7771    3.6849 C   0  0  0  0  0  0  0  0  0  0  0  0
    1.9381    4.7390    2.8483 F   0  0  0  0  0  0  0  0  0  0  0  0
    2.6454    4.4927    5.0075 F   0  0  0  0  0  0  0  0  0  0  0  0
    3.7944    3.6617    3.3229 F   0  0  0  0  0  0  0  0  0  0  0  0
  1  2  1  0
  2  3  1  0
  3  4  2  0
  4  5  1  0
  5  6  2  0
  3  7  1  0
  7  8  2  0
  8  9  1  0
  9 10  2  0
 10 11  1  0
 11 12  2  0
 12 13  1  0
 13 14  2  0
 14 15  1  0
 15 16  2  0
 10 17  1  0
 17 18  1  0
 18 19  1  0
 19 20  1  0
 20 21  1  0
 21 22  1  0
 20 23  1  0
 23 24  1  0
 23 25  1  0
 25 26  2  0
 25 27  1  0
 27 28  2  0
 28 29  1  0
 29 30  2  0
 30 31  1  0
 31 32  2  0
 30 33  1  0
 33 34  2  0
 33 35  1  0
 28 36  1  0
 36 37  1  0
 36 38  1  0
 36 39  1  0
  6  2  1  0
 16  7  1  0
 16 11  1  0
 22 17  1  0
 32 27  1  0
M  CHG  2  33   1  35  -1
M  END
$$$$
