
     RDKit          3D

 39 43  0  0  0  0  0  0  0  0999 V2000
    1.5102    2.7473   19.1817 C   0  0  0  0  0  0  0  0  0  0  0  0
    2.2153    3.9649   19.5938 N   0  0  0  0  0  0  0  0  0  0  0  0
    2.5822    5.0403   18.8944 C   0  0  0  0  0  0  0  0  0  0  0  0
    3.1701    5.9055   19.7914 C   0  0  0  0  0  0  0  0  0  0  0  0
    3.1434    5.3157   21.0358 C   0  0  0  0  0  0  0  0  0  0  0  0
    2.5494    4.1255   20.8710 N   0  0  0  0  0  0  0  0  0  0  0  0
    2.3424    5.2796   17.4905 C   0  0  0  0  0  0  0  0  0  0  0  0
    2.6516    4.3705   16.5457 N   0  0  0  0  0  0  0  0  0  0  0  0
    2.4389    4.5489   15.2649 N   0  0  0  0  0  0  0  0  0  0  0  0
    1.8746    5.6975   14.7892 C   0  0  0  0  0  0  0  0  0  0  0  0
    1.5408    6.6545   15.7070 C   0  0  0  0  0  0  0  0  0  0  0  0
    0.9650    7.8343   15.3039 C   0  0  0  0  0  0  0  0  0  0  0  0
    0.6183    8.7924   16.2190 C   0  0  0  0  0  0  0  0  0  0  0  0
    0.8397    8.5920   17.5563 C   0  0  0  0  0  0  0  0  0  0  0  0
    1.4184    7.4241   18.0189 C   0  0  0  0  0  0  0  0  0  0  0  0
    1.7662    6.4668   17.0849 C   0  0  0  0  0  0  0  0  0  0  0  0
    1.6121    5.8460   13.4080 N   0  0  0  0  0  0  0  0  0  0  0  0
    0.5415    6.6977   12.9298 C   0  0  0  0  0  0  0  0  0  0  0  0
    0.2529    6.4237   11.4633 C   0  0  0  0  0  0  0  0  0  0  0  0
    1.4784    6.5713   10.5895 C   0  0  0  0  0  0  0  0  0  0  0  0
    2.7104    6.1339   11.2919 C   0  0  0  0  0  0  0  0  0  0  0  0
    2.3631    5.1538   12.3817 C   0  0  0  0  0  0  0  0  0  0  0  0
    1.5357    7.8833    9.9751 N   0  0  0  0  0  0  0  0  0  0  0  0
    1.4143    9.0395   10.8318 C   0  0  0  0  0  0  0  0  0  0  0  0
    1.6891    8.1050    8.5851 C   0  0  0  0  0  0  0  0  0  0  0  0
    1.7691    9.3188    8.2034 O   0  0  0  0  0  0  0  0  0  0  0  0
    1.7571    7.0603    7.5880 C   0  0  0  0  0  0  0  0  0  0  0  0
    2.9182    6.6208    6.9934 C   0  0  0  0  0  0  0  0  0  0  0  0
    2.9101    5.5896    6.0618 C   0  0  0  0  0  0  0  0  0  0  0  0
    1.7403    4.9695    5.6978 C   0  0  0  0  0  0  0  0  0  0  0  0
    0.5738    5.3997    6.2835 C   0  0  0  0  0  0  0  0  0  0  0  0
    0.5836    6.4229    7.2083 C   0  0  0  0  0  0  0  0  0  0  0  0
    1.7704    3.9131    4.7370 N   0  0  0  0  0  4  0  0  0  0  0  0
    0.7343    3.3014    4.4221 O   0  0  0  0  0  0  0  0  0  0  0  0
    2.9430    3.5551    4.1450 O   0  0  0  0  0  1  0  0  0  0  0  0
    4.1916    7.2630    7.3178 C   0  0  0  0  0  0  0  0  0  0  0  0
    4.6648    7.0274    8.5826 F   0  0  0  0  0  0  0  0  0  0  0  0
    4.1586    8.6404    7.0447 F   0  0  0  0  0  0  0  0  0  0  0  0
    5.1996    6.7889    6.4639 F   0  0  0  0  0  0  0  0  0  0  0  0
  1  2  1  0
  2  3  1  0
  3  4  2  0
  4  5  1  0
  5  6  2  0
  3  7  1  0
  7  8  2  0
  8  9  1  0
  9 10  2  0
 10 11  1  0
 11 12  2  0
 12 13  1  0
 13 14  2  0
 14 15  1  0
 15 16  2  0
 10 17  1  0
 17 18  1  0
 18 19  1  0
 19 20  1  0
 20 21  1  0
 21 22  1  0
 20 23  1  0
 23 24  1  0
 23 25  1  0
 25 26  2  0
 25 27  1  0
 27 28  2  0
 28 29  1  0
 29 30  2  0
 30 31  1  0
 31 32  2  0
 30 33  1  0
 33 34  2  0
 33 35  1  0
 28 36  1  0
 36 37  1  0
 36 38  1  0
 36 39  1  0
  6  2  1  0
 16  7  1  0
 16 11  1  0
 22 17  1  0
 32 27  1  0
M  CHG  2  33   1  35  -1
M  END
$$$$
