
     RDKit          3D

 39 43  0  0  0  0  0  0  0  0999 V2000
    5.5840    4.0807   16.6948 C   0  0  0  0  0  0  0  0  0  0  0  0
    4.5156    4.7209   17.4684 N   0  0  0  0  0  0  0  0  0  0  0  0
    3.4956    5.4879   17.0793 C   0  0  0  0  0  0  0  0  0  0  0  0
    2.7700    5.7754   18.2150 C   0  0  0  0  0  0  0  0  0  0  0  0
    3.3860    5.1620   19.2835 C   0  0  0  0  0  0  0  0  0  0  0  0
    4.4538    4.5254   18.7824 N   0  0  0  0  0  0  0  0  0  0  0  0
    3.1752    5.8763   15.7258 C   0  0  0  0  0  0  0  0  0  0  0  0
    4.1285    6.1144   14.8040 N   0  0  0  0  0  0  0  0  0  0  0  0
    3.8750    6.4581   13.5651 N   0  0  0  0  0  0  0  0  0  0  0  0
    2.5947    6.6014   13.1128 C   0  0  0  0  0  0  0  0  0  0  0  0
    1.5877    6.3709   14.0085 C   0  0  0  0  0  0  0  0  0  0  0  0
    0.2745    6.4910   13.6251 C   0  0  0  0  0  0  0  0  0  0  0  0
   -0.7390    6.2509   14.5144 C   0  0  0  0  0  0  0  0  0  0  0  0
   -0.4617    5.8860   15.8056 C   0  0  0  0  0  0  0  0  0  0  0  0
    0.8420    5.7519   16.2474 C   0  0  0  0  0  0  0  0  0  0  0  0
    1.8552    5.9999   15.3410 C   0  0  0  0  0  0  0  0  0  0  0  0
    2.3472    6.9267   11.7594 N   0  0  0  0  0  0  0  0  0  0  0  0
    2.8498    6.1009   10.6798 C   0  0  0  0  0  0  0  0  0  0  0  0
    2.7459    6.8325    9.3521 C   0  0  0  0  0  0  0  0  0  0  0  0
    1.3394    7.2999    9.0515 C   0  0  0  0  0  0  0  0  0  0  0  0
    0.6192    7.7048   10.2844 C   0  0  0  0  0  0  0  0  0  0  0  0
    1.6053    8.1014   11.3517 C   0  0  0  0  0  0  0  0  0  0  0  0
    0.6418    6.3619    8.1937 N   0  0  0  0  0  0  0  0  0  0  0  0
   -0.5405    5.7164    8.7144 C   0  0  0  0  0  0  0  0  0  0  0  0
    1.0532    6.0263    6.8811 C   0  0  0  0  0  0  0  0  0  0  0  0
    0.2054    5.4114    6.1541 O   0  0  0  0  0  0  0  0  0  0  0  0
    2.3522    6.3290    6.3235 C   0  0  0  0  0  0  0  0  0  0  0  0
    2.7572    7.5808    5.9183 C   0  0  0  0  0  0  0  0  0  0  0  0
    4.0344    7.8025    5.4175 C   0  0  0  0  0  0  0  0  0  0  0  0
    4.9424    6.7785    5.3067 C   0  0  0  0  0  0  0  0  0  0  0  0
    4.5501    5.5235    5.7069 C   0  0  0  0  0  0  0  0  0  0  0  0
    3.2823    5.3052    6.2043 C   0  0  0  0  0  0  0  0  0  0  0  0
    6.2462    7.0438    4.7874 N   0  0  0  0  0  4  0  0  0  0  0  0
    7.1505    6.1927    4.8560 O   0  0  0  0  0  0  0  0  0  0  0  0
    6.5233    8.2423    4.2039 O   0  0  0  0  0  1  0  0  0  0  0  0
    1.8243    8.7053    5.9836 C   0  0  0  0  0  0  0  0  0  0  0  0
    0.5831    8.4727    5.4503 F   0  0  0  0  0  0  0  0  0  0  0  0
    2.3880    9.8746    5.4470 F   0  0  0  0  0  0  0  0  0  0  0  0
    1.5805    9.0497    7.3222 F   0  0  0  0  0  0  0  0  0  0  0  0
  1  2  1  0
  2  3  1  0
  3  4  2  0
  4  5  1  0
  5  6  2  0
  3  7  1  0
  7  8  2  0
  8  9  1  0
  9 10  2  0
 10 11  1  0
 11 12  2  0
 12 13  1  0
 13 14  2  0
 14 15  1  0
 15 16  2  0
 10 17  1  0
 17 18  1  0
 18 19  1  0
 19 20  1  0
 20 21  1  0
 21 22  1  0
 20 23  1  0
 23 24  1  0
 23 25  1  0
 25 26  2  0
 25 27  1  0
 27 28  2  0
 28 29  1  0
 29 30  2  0
 30 31  1  0
 31 32  2  0
 30 33  1  0
 33 34  2  0
 33 35  1  0
 28 36  1  0
 36 37  1  0
 36 38  1  0
 36 39  1  0
  6  2  1  0
 16  7  1  0
 16 11  1  0
 22 17  1  0
 32 27  1  0
M  CHG  2  33   1  35  -1
M  END
$$$$
