
     RDKit          3D

 39 43  0  0  0  0  0  0  0  0999 V2000
    1.6771    3.5812   17.7008 C   0  0  0  0  0  0  0  0  0  0  0  0
    1.3838    4.9867   17.9979 N   0  0  0  0  0  0  0  0  0  0  0  0
    1.3696    6.0614   17.2074 C   0  0  0  0  0  0  0  0  0  0  0  0
    0.9786    7.1203   17.9979 C   0  0  0  0  0  0  0  0  0  0  0  0
    0.7640    6.6464   19.2732 C   0  0  0  0  0  0  0  0  0  0  0  0
    1.0241    5.3322   19.2308 N   0  0  0  0  0  0  0  0  0  0  0  0
    1.6382    6.0928   15.7888 C   0  0  0  0  0  0  0  0  0  0  0  0
    0.9440    5.3424   14.9113 N   0  0  0  0  0  0  0  0  0  0  0  0
    1.1529    5.3531   13.6176 N   0  0  0  0  0  0  0  0  0  0  0  0
    2.1126    6.1460   13.0570 C   0  0  0  0  0  0  0  0  0  0  0  0
    2.8470    6.9291   13.9038 C   0  0  0  0  0  0  0  0  0  0  0  0
    3.8269    7.7563   13.4124 C   0  0  0  0  0  0  0  0  0  0  0  0
    4.5587    8.5512   14.2539 C   0  0  0  0  0  0  0  0  0  0  0  0
    4.3270    8.5363   15.6043 C   0  0  0  0  0  0  0  0  0  0  0  0
    3.3544    7.7215   16.1547 C   0  0  0  0  0  0  0  0  0  0  0  0
    2.6252    6.9222   15.2950 C   0  0  0  0  0  0  0  0  0  0  0  0
    2.2862    6.1747   11.6543 N   0  0  0  0  0  0  0  0  0  0  0  0
    1.1840    5.9110   10.7511 C   0  0  0  0  0  0  0  0  0  0  0  0
    1.6933    5.6681    9.3402 C   0  0  0  0  0  0  0  0  0  0  0  0
    2.5427    6.8069    8.8219 C   0  0  0  0  0  0  0  0  0  0  0  0
    3.3478    7.4285    9.9027 C   0  0  0  0  0  0  0  0  0  0  0  0
    3.5606    6.4418   11.0207 C   0  0  0  0  0  0  0  0  0  0  0  0
    1.7636    7.7221    8.0110 N   0  0  0  0  0  0  0  0  0  0  0  0
    1.1991    8.8856    8.6535 C   0  0  0  0  0  0  0  0  0  0  0  0
    1.5079    7.5414    6.6301 C   0  0  0  0  0  0  0  0  0  0  0  0
    0.9297    8.5022    6.0235 O   0  0  0  0  0  0  0  0  0  0  0  0
    1.8525    6.3558    5.8779 C   0  0  0  0  0  0  0  0  0  0  0  0
    2.9124    6.2642    5.0042 C   0  0  0  0  0  0  0  0  0  0  0  0
    3.2010    5.0803    4.3365 C   0  0  0  0  0  0  0  0  0  0  0  0
    2.4372    3.9545    4.5227 C   0  0  0  0  0  0  0  0  0  0  0  0
    1.3752    4.0331    5.3917 C   0  0  0  0  0  0  0  0  0  0  0  0
    1.0905    5.2088    6.0541 C   0  0  0  0  0  0  0  0  0  0  0  0
    2.7638    2.7551    3.8191 N   0  0  0  0  0  4  0  0  0  0  0  0
    2.0732    1.7284    3.9448 O   0  0  0  0  0  0  0  0  0  0  0  0
    3.8450    2.7153    2.9927 O   0  0  0  0  0  1  0  0  0  0  0  0
    3.7439    7.4385    4.7414 C   0  0  0  0  0  0  0  0  0  0  0  0
    3.0616    8.6098    4.5377 F   0  0  0  0  0  0  0  0  0  0  0  0
    4.6546    7.2023    3.6985 F   0  0  0  0  0  0  0  0  0  0  0  0
    4.5748    7.6946    5.8433 F   0  0  0  0  0  0  0  0  0  0  0  0
  1  2  1  0
  2  3  1  0
  3  4  2  0
  4  5  1  0
  5  6  2  0
  3  7  1  0
  7  8  2  0
  8  9  1  0
  9 10  2  0
 10 11  1  0
 11 12  2  0
 12 13  1  0
 13 14  2  0
 14 15  1  0
 15 16  2  0
 10 17  1  0
 17 18  1  0
 18 19  1  0
 19 20  1  0
 20 21  1  0
 21 22  1  0
 20 23  1  0
 23 24  1  0
 23 25  1  0
 25 26  2  0
 25 27  1  0
 27 28  2  0
 28 29  1  0
 29 30  2  0
 30 31  1  0
 31 32  2  0
 30 33  1  0
 33 34  2  0
 33 35  1  0
 28 36  1  0
 36 37  1  0
 36 38  1  0
 36 39  1  0
  6  2  1  0
 16  7  1  0
 16 11  1  0
 22 17  1  0
 32 27  1  0
M  CHG  2  33   1  35  -1
M  END
$$$$
