
     RDKit          3D

 39 43  0  0  0  0  0  0  0  0999 V2000
    6.2045   10.4003    8.1666 C   0  0  0  0  0  0  0  0  0  0  0  0
    6.9811    9.1900    7.8805 N   0  0  0  0  0  0  0  0  0  0  0  0
    6.8036    7.9265    8.2707 C   0  0  0  0  0  0  0  0  0  0  0  0
    7.8002    7.1899    7.6680 C   0  0  0  0  0  0  0  0  0  0  0  0
    8.5707    8.0476    6.9146 C   0  0  0  0  0  0  0  0  0  0  0  0
    8.0346    9.2659    7.0724 N   0  0  0  0  0  0  0  0  0  0  0  0
    5.7345    7.4214    9.0998 C   0  0  0  0  0  0  0  0  0  0  0  0
    5.8627    7.2930   10.4348 N   0  0  0  0  0  0  0  0  0  0  0  0
    4.9114    6.8487   11.2191 N   0  0  0  0  0  0  0  0  0  0  0  0
    3.6947    6.4769   10.7239 C   0  0  0  0  0  0  0  0  0  0  0  0
    3.5110    6.5878    9.3735 C   0  0  0  0  0  0  0  0  0  0  0  0
    2.3119    6.2371    8.8033 C   0  0  0  0  0  0  0  0  0  0  0  0
    2.1177    6.3561    7.4528 C   0  0  0  0  0  0  0  0  0  0  0  0
    3.1177    6.8278    6.6435 C   0  0  0  0  0  0  0  0  0  0  0  0
    4.3462    7.1938    7.1628 C   0  0  0  0  0  0  0  0  0  0  0  0
    4.5301    7.0661    8.5264 C   0  0  0  0  0  0  0  0  0  0  0  0
    2.6693    6.0459   11.5965 N   0  0  0  0  0  0  0  0  0  0  0  0
    2.5006    6.6314   12.9114 C   0  0  0  0  0  0  0  0  0  0  0  0
    1.5728    5.7803   13.7622 C   0  0  0  0  0  0  0  0  0  0  0  0
    0.2290    5.5490   13.1084 C   0  0  0  0  0  0  0  0  0  0  0  0
    0.3478    5.4323   11.6336 C   0  0  0  0  0  0  0  0  0  0  0  0
    1.7383    4.9888   11.2611 C   0  0  0  0  0  0  0  0  0  0  0  0
   -0.7624    6.4920   13.5879 N   0  0  0  0  0  0  0  0  0  0  0  0
   -1.4999    7.2570   12.6099 C   0  0  0  0  0  0  0  0  0  0  0  0
   -1.0453    6.7224   14.9560 C   0  0  0  0  0  0  0  0  0  0  0  0
   -2.0492    7.4636   15.2171 O   0  0  0  0  0  0  0  0  0  0  0  0
   -0.2795    6.1819   16.0567 C   0  0  0  0  0  0  0  0  0  0  0  0
   -0.4026    4.8987   16.5397 C   0  0  0  0  0  0  0  0  0  0  0  0
    0.3896    4.4385   17.5846 C   0  0  0  0  0  0  0  0  0  0  0  0
    1.3267    5.2488   18.1767 C   0  0  0  0  0  0  0  0  0  0  0  0
    1.4588    6.5327   17.7043 C   0  0  0  0  0  0  0  0  0  0  0  0
    0.6721    6.9878   16.6669 C   0  0  0  0  0  0  0  0  0  0  0  0
    2.1231    4.7415   19.2483 N   0  0  0  0  0  4  0  0  0  0  0  0
    3.0101    5.4367   19.7745 O   0  0  0  0  0  0  0  0  0  0  0  0
    1.9233    3.4784   19.7155 O   0  0  0  0  0  1  0  0  0  0  0  0
   -1.4046    3.9984   15.9699 C   0  0  0  0  0  0  0  0  0  0  0  0
   -1.4778    2.7574   16.5474 F   0  0  0  0  0  0  0  0  0  0  0  0
   -1.2703    3.8940   14.5756 F   0  0  0  0  0  0  0  0  0  0  0  0
   -2.6874    4.5447   16.1303 F   0  0  0  0  0  0  0  0  0  0  0  0
  1  2  1  0
  2  3  1  0
  3  4  2  0
  4  5  1  0
  5  6  2  0
  3  7  1  0
  7  8  2  0
  8  9  1  0
  9 10  2  0
 10 11  1  0
 11 12  2  0
 12 13  1  0
 13 14  2  0
 14 15  1  0
 15 16  2  0
 10 17  1  0
 17 18  1  0
 18 19  1  0
 19 20  1  0
 20 21  1  0
 21 22  1  0
 20 23  1  0
 23 24  1  0
 23 25  1  0
 25 26  2  0
 25 27  1  0
 27 28  2  0
 28 29  1  0
 29 30  2  0
 30 31  1  0
 31 32  2  0
 30 33  1  0
 33 34  2  0
 33 35  1  0
 28 36  1  0
 36 37  1  0
 36 38  1  0
 36 39  1  0
  6  2  1  0
 16  7  1  0
 16 11  1  0
 22 17  1  0
 32 27  1  0
M  CHG  2  33   1  35  -1
M  END
$$$$
