
     RDKit          3D

 39 43  0  0  0  0  0  0  0  0999 V2000
    1.4306    3.1536   15.4978 C   0  0  0  0  0  0  0  0  0  0  0  0
    0.9046    4.4561   15.9180 N   0  0  0  0  0  0  0  0  0  0  0  0
    0.7864    5.6060   15.2516 C   0  0  0  0  0  0  0  0  0  0  0  0
    0.1798    6.4940   16.1132 C   0  0  0  0  0  0  0  0  0  0  0  0
   -0.0558    5.8427   17.3037 C   0  0  0  0  0  0  0  0  0  0  0  0
    0.4042    4.5941   17.1424 N   0  0  0  0  0  0  0  0  0  0  0  0
    1.1536    5.8478   13.8760 C   0  0  0  0  0  0  0  0  0  0  0  0
    1.1045    4.8796   12.9405 N   0  0  0  0  0  0  0  0  0  0  0  0
    1.4199    5.0652   11.6821 N   0  0  0  0  0  0  0  0  0  0  0  0
    1.8296    6.2836   11.2220 C   0  0  0  0  0  0  0  0  0  0  0  0
    1.8969    7.3027   12.1311 C   0  0  0  0  0  0  0  0  0  0  0  0
    2.2962    8.5575   11.7413 C   0  0  0  0  0  0  0  0  0  0  0  0
    2.3554    9.5852   12.6446 C   0  0  0  0  0  0  0  0  0  0  0  0
    2.0171    9.3808   13.9565 C   0  0  0  0  0  0  0  0  0  0  0  0
    1.6102    8.1376   14.4055 C   0  0  0  0  0  0  0  0  0  0  0  0
    1.5577    7.1085   13.4846 C   0  0  0  0  0  0  0  0  0  0  0  0
    2.1185    6.4694    9.8507 N   0  0  0  0  0  0  0  0  0  0  0  0
    1.9350    5.4014    8.8885 C   0  0  0  0  0  0  0  0  0  0  0  0
    2.6244    5.7373    7.5766 C   0  0  0  0  0  0  0  0  0  0  0  0
    2.1665    7.0571    6.9975 C   0  0  0  0  0  0  0  0  0  0  0  0
    1.8681    8.0497    8.0598 C   0  0  0  0  0  0  0  0  0  0  0  0
    2.6332    7.7112    9.3124 C   0  0  0  0  0  0  0  0  0  0  0  0
    1.1285    6.8673    6.0032 N   0  0  0  0  0  0  0  0  0  0  0  0
   -0.2386    6.7734    6.4590 C   0  0  0  0  0  0  0  0  0  0  0  0
    1.3699    6.7538    4.6127 C   0  0  0  0  0  0  0  0  0  0  0  0
    0.3586    6.8640    3.8442 O   0  0  0  0  0  0  0  0  0  0  0  0
    2.6677    6.5220    4.0192 C   0  0  0  0  0  0  0  0  0  0  0  0
    3.5770    7.5101    3.7162 C   0  0  0  0  0  0  0  0  0  0  0  0
    4.8200    7.2091    3.1726 C   0  0  0  0  0  0  0  0  0  0  0  0
    5.1884    5.9116    2.9156 C   0  0  0  0  0  0  0  0  0  0  0  0
    4.2890    4.9157    3.2127 C   0  0  0  0  0  0  0  0  0  0  0  0
    3.0560    5.2160    3.7527 C   0  0  0  0  0  0  0  0  0  0  0  0
    6.4744    5.6401    2.3564 N   0  0  0  0  0  4  0  0  0  0  0  0
    6.8448    4.4739    2.1335 O   0  0  0  0  0  0  0  0  0  0  0  0
    7.3230    6.6614    2.0555 O   0  0  0  0  0  1  0  0  0  0  0  0
    3.2299    8.9133    3.9389 C   0  0  0  0  0  0  0  0  0  0  0  0
    4.2564    9.8071    3.7761 F   0  0  0  0  0  0  0  0  0  0  0  0
    2.5987    9.0975    5.1802 F   0  0  0  0  0  0  0  0  0  0  0  0
    2.2524    9.3182    3.0168 F   0  0  0  0  0  0  0  0  0  0  0  0
  1  2  1  0
  2  3  1  0
  3  4  2  0
  4  5  1  0
  5  6  2  0
  3  7  1  0
  7  8  2  0
  8  9  1  0
  9 10  2  0
 10 11  1  0
 11 12  2  0
 12 13  1  0
 13 14  2  0
 14 15  1  0
 15 16  2  0
 10 17  1  0
 17 18  1  0
 18 19  1  0
 19 20  1  0
 20 21  1  0
 21 22  1  0
 20 23  1  0
 23 24  1  0
 23 25  1  0
 25 26  2  0
 25 27  1  0
 27 28  2  0
 28 29  1  0
 29 30  2  0
 30 31  1  0
 31 32  2  0
 30 33  1  0
 33 34  2  0
 33 35  1  0
 28 36  1  0
 36 37  1  0
 36 38  1  0
 36 39  1  0
  6  2  1  0
 16  7  1  0
 16 11  1  0
 22 17  1  0
 32 27  1  0
M  CHG  2  33   1  35  -1
M  END
$$$$
