
     RDKit          3D

 39 43  0  0  0  0  0  0  0  0999 V2000
    2.6298    6.4858   16.3132 C   0  0  0  0  0  0  0  0  0  0  0  0
    1.4364    5.6491   16.1534 N   0  0  0  0  0  0  0  0  0  0  0  0
    0.8101    5.2226   15.0553 C   0  0  0  0  0  0  0  0  0  0  0  0
   -0.2282    4.4249   15.4849 C   0  0  0  0  0  0  0  0  0  0  0  0
   -0.2014    4.3917   16.8616 C   0  0  0  0  0  0  0  0  0  0  0  0
    0.8352    5.1562   17.2325 N   0  0  0  0  0  0  0  0  0  0  0  0
    1.1915    5.4851   13.6874 C   0  0  0  0  0  0  0  0  0  0  0  0
    1.5258    4.4972   12.8345 N   0  0  0  0  0  0  0  0  0  0  0  0
    1.8664    4.6970   11.5850 N   0  0  0  0  0  0  0  0  0  0  0  0
    1.9062    5.9520   11.0488 C   0  0  0  0  0  0  0  0  0  0  0  0
    1.5752    6.9923   11.8722 C   0  0  0  0  0  0  0  0  0  0  0  0
    1.5879    8.2827   11.4023 C   0  0  0  0  0  0  0  0  0  0  0  0
    1.2470    9.3281   12.2186 C   0  0  0  0  0  0  0  0  0  0  0  0
    0.8863    9.1063   13.5218 C   0  0  0  0  0  0  0  0  0  0  0  0
    0.8579    7.8281   14.0491 C   0  0  0  0  0  0  0  0  0  0  0  0
    1.2071    6.7825   13.2157 C   0  0  0  0  0  0  0  0  0  0  0  0
    2.2308    6.1367    9.6853 N   0  0  0  0  0  0  0  0  0  0  0  0
    1.7800    5.2075    8.6688 C   0  0  0  0  0  0  0  0  0  0  0  0
    2.5302    5.4319    7.3666 C   0  0  0  0  0  0  0  0  0  0  0  0
    2.4226    6.8557    6.8685 C   0  0  0  0  0  0  0  0  0  0  0  0
    2.3883    7.8289    7.9886 C   0  0  0  0  0  0  0  0  0  0  0  0
    3.0439    7.2358    9.2081 C   0  0  0  0  0  0  0  0  0  0  0  0
    1.3689    6.9934    5.8821 N   0  0  0  0  0  0  0  0  0  0  0  0
    0.0259    7.2372    6.3535 C   0  0  0  0  0  0  0  0  0  0  0  0
    1.5693    6.8900    4.4842 C   0  0  0  0  0  0  0  0  0  0  0  0
    0.5235    6.8635    3.7555 O   0  0  0  0  0  0  0  0  0  0  0  0
    2.8622    6.8112    3.8421 C   0  0  0  0  0  0  0  0  0  0  0  0
    3.5177    5.6378    3.5445 C   0  0  0  0  0  0  0  0  0  0  0  0
    4.7480    5.6386    2.8986 C   0  0  0  0  0  0  0  0  0  0  0  0
    5.3583    6.8130    2.5327 C   0  0  0  0  0  0  0  0  0  0  0  0
    4.7146    7.9917    2.8250 C   0  0  0  0  0  0  0  0  0  0  0  0
    3.4933    7.9891    3.4658 C   0  0  0  0  0  0  0  0  0  0  0  0
    6.6230    6.7751    1.8701 N   0  0  0  0  0  4  0  0  0  0  0  0
    7.1473    5.6943    1.5478 O   0  0  0  0  0  0  0  0  0  0  0  0
    7.2812    7.9306    1.5779 O   0  0  0  0  0  1  0  0  0  0  0  0
    2.9321    4.3562    3.9366 C   0  0  0  0  0  0  0  0  0  0  0  0
    1.5679    4.2746    3.8298 F   0  0  0  0  0  0  0  0  0  0  0  0
    3.3578    3.9649    5.2167 F   0  0  0  0  0  0  0  0  0  0  0  0
    3.4183    3.3328    3.1082 F   0  0  0  0  0  0  0  0  0  0  0  0
  1  2  1  0
  2  3  1  0
  3  4  2  0
  4  5  1  0
  5  6  2  0
  3  7  1  0
  7  8  2  0
  8  9  1  0
  9 10  2  0
 10 11  1  0
 11 12  2  0
 12 13  1  0
 13 14  2  0
 14 15  1  0
 15 16  2  0
 10 17  1  0
 17 18  1  0
 18 19  1  0
 19 20  1  0
 20 21  1  0
 21 22  1  0
 20 23  1  0
 23 24  1  0
 23 25  1  0
 25 26  2  0
 25 27  1  0
 27 28  2  0
 28 29  1  0
 29 30  2  0
 30 31  1  0
 31 32  2  0
 30 33  1  0
 33 34  2  0
 33 35  1  0
 28 36  1  0
 36 37  1  0
 36 38  1  0
 36 39  1  0
  6  2  1  0
 16  7  1  0
 16 11  1  0
 22 17  1  0
 32 27  1  0
M  CHG  2  33   1  35  -1
M  END
$$$$
