
     RDKit          3D

 39 43  0  0  0  0  0  0  0  0999 V2000
    1.5611    2.6225   18.4134 C   0  0  0  0  0  0  0  0  0  0  0  0
    1.3086    3.8791   19.1253 N   0  0  0  0  0  0  0  0  0  0  0  0
    1.2260    5.1338   18.6790 C   0  0  0  0  0  0  0  0  0  0  0  0
    0.9215    5.9160   19.7720 C   0  0  0  0  0  0  0  0  0  0  0  0
    0.8279    5.0946   20.8737 C   0  0  0  0  0  0  0  0  0  0  0  0
    1.0727    3.8523   20.4339 N   0  0  0  0  0  0  0  0  0  0  0  0
    1.3562    5.5729   17.3094 C   0  0  0  0  0  0  0  0  0  0  0  0
    0.8086    4.8924   16.2837 N   0  0  0  0  0  0  0  0  0  0  0  0
    0.8973    5.2661   15.0308 N   0  0  0  0  0  0  0  0  0  0  0  0
    1.5675    6.3999   14.6709 C   0  0  0  0  0  0  0  0  0  0  0  0
    2.1427    7.1291   15.6744 C   0  0  0  0  0  0  0  0  0  0  0  0
    2.8293    8.2838   15.3897 C   0  0  0  0  0  0  0  0  0  0  0  0
    3.3985    9.0246   16.3911 C   0  0  0  0  0  0  0  0  0  0  0  0
    3.2937    8.6272   17.6982 C   0  0  0  0  0  0  0  0  0  0  0  0
    2.6159    7.4720   18.0430 C   0  0  0  0  0  0  0  0  0  0  0  0
    2.0489    6.7321   17.0228 C   0  0  0  0  0  0  0  0  0  0  0  0
    1.6083    6.8067   13.3176 N   0  0  0  0  0  0  0  0  0  0  0  0
    1.9222    5.8709   12.2565 C   0  0  0  0  0  0  0  0  0  0  0  0
    2.2330    6.6090   10.9651 C   0  0  0  0  0  0  0  0  0  0  0  0
    1.1175    7.5375   10.5403 C   0  0  0  0  0  0  0  0  0  0  0  0
    0.4387    8.1520   11.7084 C   0  0  0  0  0  0  0  0  0  0  0  0
    1.3672    8.1703   12.8944 C   0  0  0  0  0  0  0  0  0  0  0  0
    0.2479    6.9090    9.5652 N   0  0  0  0  0  0  0  0  0  0  0  0
   -0.8873    6.1604   10.0514 C   0  0  0  0  0  0  0  0  0  0  0  0
    0.4476    6.9698    8.1648 C   0  0  0  0  0  0  0  0  0  0  0  0
   -0.5899    6.8590    7.4322 O   0  0  0  0  0  0  0  0  0  0  0  0
    1.7317    7.1439    7.5238 C   0  0  0  0  0  0  0  0  0  0  0  0
    2.4218    6.1475    6.8710 C   0  0  0  0  0  0  0  0  0  0  0  0
    3.6406    6.3961    6.2516 C   0  0  0  0  0  0  0  0  0  0  0  0
    4.2045    7.6479    6.2682 C   0  0  0  0  0  0  0  0  0  0  0  0
    3.5260    8.6514    6.9176 C   0  0  0  0  0  0  0  0  0  0  0  0
    2.3161    8.4032    7.5315 C   0  0  0  0  0  0  0  0  0  0  0  0
    5.4587    7.8662    5.6207 N   0  0  0  0  0  4  0  0  0  0  0  0
    6.0590    6.9365    5.0530 O   0  0  0  0  0  0  0  0  0  0  0  0
    6.0228    9.1053    5.6140 O   0  0  0  0  0  1  0  0  0  0  0  0
    1.8866    4.7865    6.8457 C   0  0  0  0  0  0  0  0  0  0  0  0
    0.7692    4.6073    6.0722 F   0  0  0  0  0  0  0  0  0  0  0  0
    1.6819    4.2888    8.1431 F   0  0  0  0  0  0  0  0  0  0  0  0
    2.8390    3.9062    6.3091 F   0  0  0  0  0  0  0  0  0  0  0  0
  1  2  1  0
  2  3  1  0
  3  4  2  0
  4  5  1  0
  5  6  2  0
  3  7  1  0
  7  8  2  0
  8  9  1  0
  9 10  2  0
 10 11  1  0
 11 12  2  0
 12 13  1  0
 13 14  2  0
 14 15  1  0
 15 16  2  0
 10 17  1  0
 17 18  1  0
 18 19  1  0
 19 20  1  0
 20 21  1  0
 21 22  1  0
 20 23  1  0
 23 24  1  0
 23 25  1  0
 25 26  2  0
 25 27  1  0
 27 28  2  0
 28 29  1  0
 29 30  2  0
 30 31  1  0
 31 32  2  0
 30 33  1  0
 33 34  2  0
 33 35  1  0
 28 36  1  0
 36 37  1  0
 36 38  1  0
 36 39  1  0
  6  2  1  0
 16  7  1  0
 16 11  1  0
 22 17  1  0
 32 27  1  0
M  CHG  2  33   1  35  -1
M  END
$$$$
