
     RDKit          3D

 39 43  0  0  0  0  0  0  0  0999 V2000
    4.6904    4.7682   17.5063 C   0  0  0  0  0  0  0  0  0  0  0  0
    3.2477    4.7974   17.7658 N   0  0  0  0  0  0  0  0  0  0  0  0
    2.2254    5.1314   16.9763 C   0  0  0  0  0  0  0  0  0  0  0  0
    1.0805    4.9288   17.7159 C   0  0  0  0  0  0  0  0  0  0  0  0
    1.4504    4.4691   18.9605 C   0  0  0  0  0  0  0  0  0  0  0  0
    2.7891    4.4028   18.9502 N   0  0  0  0  0  0  0  0  0  0  0  0
    2.3018    5.5504   15.5963 C   0  0  0  0  0  0  0  0  0  0  0  0
    2.8486    4.7737   14.6410 N   0  0  0  0  0  0  0  0  0  0  0  0
    2.9256    5.1163   13.3784 N   0  0  0  0  0  0  0  0  0  0  0  0
    2.4441    6.3142   12.9342 C   0  0  0  0  0  0  0  0  0  0  0  0
    1.8778    7.1417   13.8638 C   0  0  0  0  0  0  0  0  0  0  0  0
    1.3676    8.3609   13.4909 C   0  0  0  0  0  0  0  0  0  0  0  0
    0.7893    9.1899   14.4151 C   0  0  0  0  0  0  0  0  0  0  0  0
    0.7088    8.8181   15.7314 C   0  0  0  0  0  0  0  0  0  0  0  0
    1.2079    7.6030   16.1639 C   0  0  0  0  0  0  0  0  0  0  0  0
    1.7915    6.7773   15.2219 C   0  0  0  0  0  0  0  0  0  0  0  0
    2.4964    6.6399   11.5595 N   0  0  0  0  0  0  0  0  0  0  0  0
    2.0518    5.7061   10.5443 C   0  0  0  0  0  0  0  0  0  0  0  0
    2.5202    6.1476    9.1678 C   0  0  0  0  0  0  0  0  0  0  0  0
    2.0804    7.5531    8.8244 C   0  0  0  0  0  0  0  0  0  0  0  0
    2.0642    8.4319   10.0202 C   0  0  0  0  0  0  0  0  0  0  0  0
    3.0103    7.9000   11.0647 C   0  0  0  0  0  0  0  0  0  0  0  0
    0.8680    7.5491    8.0292 N   0  0  0  0  0  0  0  0  0  0  0  0
   -0.3782    7.8564    8.6908 C   0  0  0  0  0  0  0  0  0  0  0  0
    0.8246    7.2491    6.6461 C   0  0  0  0  0  0  0  0  0  0  0  0
   -0.3303    7.1771    6.1109 O   0  0  0  0  0  0  0  0  0  0  0  0
    1.9867    7.0206    5.8170 C   0  0  0  0  0  0  0  0  0  0  0  0
    2.4243    5.7811    5.4078 C   0  0  0  0  0  0  0  0  0  0  0  0
    3.5355    5.6399    4.5855 C   0  0  0  0  0  0  0  0  0  0  0  0
    4.2413    6.7342    4.1498 C   0  0  0  0  0  0  0  0  0  0  0  0
    3.8153    7.9775    4.5521 C   0  0  0  0  0  0  0  0  0  0  0  0
    2.7119    8.1159    5.3679 C   0  0  0  0  0  0  0  0  0  0  0  0
    5.3785    6.5506    3.3053 N   0  0  0  0  0  4  0  0  0  0  0  0
    5.7244    5.4160    2.9311 O   0  0  0  0  0  0  0  0  0  0  0  0
    6.1088    7.6230    2.8925 O   0  0  0  0  0  1  0  0  0  0  0  0
    1.7317    4.5764    5.8642 C   0  0  0  0  0  0  0  0  0  0  0  0
    1.4628    4.5246    7.2073 F   0  0  0  0  0  0  0  0  0  0  0  0
    2.3915    3.4109    5.4409 F   0  0  0  0  0  0  0  0  0  0  0  0
    0.4766    4.4801    5.2434 F   0  0  0  0  0  0  0  0  0  0  0  0
  1  2  1  0
  2  3  1  0
  3  4  2  0
  4  5  1  0
  5  6  2  0
  3  7  1  0
  7  8  2  0
  8  9  1  0
  9 10  2  0
 10 11  1  0
 11 12  2  0
 12 13  1  0
 13 14  2  0
 14 15  1  0
 15 16  2  0
 10 17  1  0
 17 18  1  0
 18 19  1  0
 19 20  1  0
 20 21  1  0
 21 22  1  0
 20 23  1  0
 23 24  1  0
 23 25  1  0
 25 26  2  0
 25 27  1  0
 27 28  2  0
 28 29  1  0
 29 30  2  0
 30 31  1  0
 31 32  2  0
 30 33  1  0
 33 34  2  0
 33 35  1  0
 28 36  1  0
 36 37  1  0
 36 38  1  0
 36 39  1  0
  6  2  1  0
 16  7  1  0
 16 11  1  0
 22 17  1  0
 32 27  1  0
M  CHG  2  33   1  35  -1
M  END
$$$$
