
     RDKit          3D

 39 43  0  0  0  0  0  0  0  0999 V2000
    0.7465    8.9905    1.5569 C   0  0  0  0  0  0  0  0  0  0  0  0
    1.6831    7.8688    1.4380 N   0  0  0  0  0  0  0  0  0  0  0  0
    2.2283    7.0844    2.3694 C   0  0  0  0  0  0  0  0  0  0  0  0
    2.9967    6.1589    1.6972 C   0  0  0  0  0  0  0  0  0  0  0  0
    2.8939    6.4159    0.3479 C   0  0  0  0  0  0  0  0  0  0  0  0
    2.0787    7.4735    0.2314 N   0  0  0  0  0  0  0  0  0  0  0  0
    1.9981    7.1478    3.7937 C   0  0  0  0  0  0  0  0  0  0  0  0
    0.7921    7.4515    4.3117 N   0  0  0  0  0  0  0  0  0  0  0  0
    0.5441    7.5080    5.5973 N   0  0  0  0  0  0  0  0  0  0  0  0
    1.5159    7.2558    6.5225 C   0  0  0  0  0  0  0  0  0  0  0  0
    2.7600    6.9418    6.0500 C   0  0  0  0  0  0  0  0  0  0  0  0
    3.7870    6.6712    6.9206 C   0  0  0  0  0  0  0  0  0  0  0  0
    5.0326    6.3454    6.4539 C   0  0  0  0  0  0  0  0  0  0  0  0
    5.2785    6.2833    5.1074 C   0  0  0  0  0  0  0  0  0  0  0  0
    4.2826    6.5482    4.1849 C   0  0  0  0  0  0  0  0  0  0  0  0
    3.0311    6.8786    4.6690 C   0  0  0  0  0  0  0  0  0  0  0  0
    1.2112    7.2767    7.9028 N   0  0  0  0  0  0  0  0  0  0  0  0
    2.1090    6.7002    8.8835 C   0  0  0  0  0  0  0  0  0  0  0  0
    1.4111    6.5469   10.2246 C   0  0  0  0  0  0  0  0  0  0  0  0
    0.8339    7.8483   10.7346 C   0  0  0  0  0  0  0  0  0  0  0  0
    0.3319    8.6988    9.6268 C   0  0  0  0  0  0  0  0  0  0  0  0
   -0.0103    7.8445    8.4343 C   0  0  0  0  0  0  0  0  0  0  0  0
    1.7337    8.4966   11.6685 N   0  0  0  0  0  0  0  0  0  0  0  0
    2.3657    9.7283   11.2577 C   0  0  0  0  0  0  0  0  0  0  0  0
    2.0446    7.9922   12.9545 C   0  0  0  0  0  0  0  0  0  0  0  0
    2.8927    8.6527   13.6399 O   0  0  0  0  0  0  0  0  0  0  0  0
    1.4732    6.7946   13.5286 C   0  0  0  0  0  0  0  0  0  0  0  0
    2.0918    5.5650   13.5493 C   0  0  0  0  0  0  0  0  0  0  0  0
    1.4926    4.4623   14.1460 C   0  0  0  0  0  0  0  0  0  0  0  0
    0.2574    4.5578   14.7381 C   0  0  0  0  0  0  0  0  0  0  0  0
   -0.3713    5.7799   14.7234 C   0  0  0  0  0  0  0  0  0  0  0  0
    0.2250    6.8735   14.1312 C   0  0  0  0  0  0  0  0  0  0  0  0
   -0.3276    3.4030   15.3418 N   0  0  0  0  0  4  0  0  0  0  0  0
    0.2247    2.2909   15.2696 O   0  0  0  0  0  0  0  0  0  0  0  0
   -1.5088    3.5009   16.0117 O   0  0  0  0  0  1  0  0  0  0  0  0
    3.3950    5.3938   12.9079 C   0  0  0  0  0  0  0  0  0  0  0  0
    3.4774    5.8378   11.6136 F   0  0  0  0  0  0  0  0  0  0  0  0
    3.8510    4.0693   13.0122 F   0  0  0  0  0  0  0  0  0  0  0  0
    4.3711    6.1264   13.6011 F   0  0  0  0  0  0  0  0  0  0  0  0
  1  2  1  0
  2  3  1  0
  3  4  2  0
  4  5  1  0
  5  6  2  0
  3  7  1  0
  7  8  2  0
  8  9  1  0
  9 10  2  0
 10 11  1  0
 11 12  2  0
 12 13  1  0
 13 14  2  0
 14 15  1  0
 15 16  2  0
 10 17  1  0
 17 18  1  0
 18 19  1  0
 19 20  1  0
 20 21  1  0
 21 22  1  0
 20 23  1  0
 23 24  1  0
 23 25  1  0
 25 26  2  0
 25 27  1  0
 27 28  2  0
 28 29  1  0
 29 30  2  0
 30 31  1  0
 31 32  2  0
 30 33  1  0
 33 34  2  0
 33 35  1  0
 28 36  1  0
 36 37  1  0
 36 38  1  0
 36 39  1  0
  6  2  1  0
 16  7  1  0
 16 11  1  0
 22 17  1  0
 32 27  1  0
M  CHG  2  33   1  35  -1
M  END
$$$$
