
     RDKit          3D

 39 43  0  0  0  0  0  0  0  0999 V2000
    3.7346    8.8936   18.0719 C   0  0  0  0  0  0  0  0  0  0  0  0
    2.5108    8.1218   18.3092 N   0  0  0  0  0  0  0  0  0  0  0  0
    1.6420    7.5786   17.4546 C   0  0  0  0  0  0  0  0  0  0  0  0
    0.7022    6.9228   18.2200 C   0  0  0  0  0  0  0  0  0  0  0  0
    1.0352    7.0927   19.5456 C   0  0  0  0  0  0  0  0  0  0  0  0
    2.1514    7.8348   19.5570 N   0  0  0  0  0  0  0  0  0  0  0  0
    1.7155    7.6097   16.0127 C   0  0  0  0  0  0  0  0  0  0  0  0
    2.1569    8.6909   15.3410 N   0  0  0  0  0  0  0  0  0  0  0  0
    2.2470    8.7511   14.0350 N   0  0  0  0  0  0  0  0  0  0  0  0
    1.8911    7.6949   13.2464 C   0  0  0  0  0  0  0  0  0  0  0  0
    1.4361    6.5709   13.8781 C   0  0  0  0  0  0  0  0  0  0  0  0
    1.0638    5.4668   13.1513 C   0  0  0  0  0  0  0  0  0  0  0  0
    0.6176    4.3339   13.7782 C   0  0  0  0  0  0  0  0  0  0  0  0
    0.5336    4.2805   15.1448 C   0  0  0  0  0  0  0  0  0  0  0  0
    0.8929    5.3630   15.9270 C   0  0  0  0  0  0  0  0  0  0  0  0
    1.3386    6.5009   15.2818 C   0  0  0  0  0  0  0  0  0  0  0  0
    2.0424    7.7681   11.8427 N   0  0  0  0  0  0  0  0  0  0  0  0
    2.0174    6.5774   11.0170 C   0  0  0  0  0  0  0  0  0  0  0  0
    2.5330    6.8824    9.6205 C   0  0  0  0  0  0  0  0  0  0  0  0
    1.7759    8.0076    8.9514 C   0  0  0  0  0  0  0  0  0  0  0  0
    1.3526    9.0423    9.9275 C   0  0  0  0  0  0  0  0  0  0  0  0
    2.2537    9.0131   11.1342 C   0  0  0  0  0  0  0  0  0  0  0  0
    0.7342    7.5000    8.0799 N   0  0  0  0  0  0  0  0  0  0  0  0
   -0.5959    7.3582    8.6239 C   0  0  0  0  0  0  0  0  0  0  0  0
    0.9398    7.1202    6.7315 C   0  0  0  0  0  0  0  0  0  0  0  0
   -0.0262    6.5257    6.1495 O   0  0  0  0  0  0  0  0  0  0  0  0
    2.1559    7.3574    5.9863 C   0  0  0  0  0  0  0  0  0  0  0  0
    3.0524    6.3789    5.6202 C   0  0  0  0  0  0  0  0  0  0  0  0
    4.1881    6.6779    4.8774 C   0  0  0  0  0  0  0  0  0  0  0  0
    4.4601    7.9640    4.4806 C   0  0  0  0  0  0  0  0  0  0  0  0
    3.5733    8.9504    4.8406 C   0  0  0  0  0  0  0  0  0  0  0  0
    2.4462    8.6519    5.5774 C   0  0  0  0  0  0  0  0  0  0  0  0
    5.6372    8.2337    3.7179 N   0  0  0  0  0  4  0  0  0  0  0  0
    5.9147    9.3896    3.3519 O   0  0  0  0  0  0  0  0  0  0  0  0
    6.4821    7.2222    3.3761 O   0  0  0  0  0  1  0  0  0  0  0  0
    2.8326    4.9951    6.0397 C   0  0  0  0  0  0  0  0  0  0  0  0
    2.0261    4.8330    7.1361 F   0  0  0  0  0  0  0  0  0  0  0  0
    4.0463    4.3078    6.2056 F   0  0  0  0  0  0  0  0  0  0  0  0
    2.1938    4.2789    5.0156 F   0  0  0  0  0  0  0  0  0  0  0  0
  1  2  1  0
  2  3  1  0
  3  4  2  0
  4  5  1  0
  5  6  2  0
  3  7  1  0
  7  8  2  0
  8  9  1  0
  9 10  2  0
 10 11  1  0
 11 12  2  0
 12 13  1  0
 13 14  2  0
 14 15  1  0
 15 16  2  0
 10 17  1  0
 17 18  1  0
 18 19  1  0
 19 20  1  0
 20 21  1  0
 21 22  1  0
 20 23  1  0
 23 24  1  0
 23 25  1  0
 25 26  2  0
 25 27  1  0
 27 28  2  0
 28 29  1  0
 29 30  2  0
 30 31  1  0
 31 32  2  0
 30 33  1  0
 33 34  2  0
 33 35  1  0
 28 36  1  0
 36 37  1  0
 36 38  1  0
 36 39  1  0
  6  2  1  0
 16  7  1  0
 16 11  1  0
 22 17  1  0
 32 27  1  0
M  CHG  2  33   1  35  -1
M  END
$$$$
