
     RDKit          3D

 39 43  0  0  0  0  0  0  0  0999 V2000
    7.5536    6.2070   16.8712 C   0  0  0  0  0  0  0  0  0  0  0  0
    6.5298    5.2210   17.2310 N   0  0  0  0  0  0  0  0  0  0  0  0
    5.3533    4.9393   16.6684 C   0  0  0  0  0  0  0  0  0  0  0  0
    4.8212    3.8894   17.3849 C   0  0  0  0  0  0  0  0  0  0  0  0
    5.7096    3.5589   18.3842 C   0  0  0  0  0  0  0  0  0  0  0  0
    6.7450    4.4003   18.2552 N   0  0  0  0  0  0  0  0  0  0  0  0
    4.7863    5.5627   15.4956 C   0  0  0  0  0  0  0  0  0  0  0  0
    5.5402    5.9148   14.4360 N   0  0  0  0  0  0  0  0  0  0  0  0
    5.0590    6.4721   13.3519 N   0  0  0  0  0  0  0  0  0  0  0  0
    3.7269    6.7401   13.2192 C   0  0  0  0  0  0  0  0  0  0  0  0
    2.9157    6.4019   14.2667 C   0  0  0  0  0  0  0  0  0  0  0  0
    1.5641    6.6368   14.2040 C   0  0  0  0  0  0  0  0  0  0  0  0
    0.7445    6.2906   15.2451 C   0  0  0  0  0  0  0  0  0  0  0  0
    1.2581    5.7026   16.3711 C   0  0  0  0  0  0  0  0  0  0  0  0
    2.6117    5.4445   16.4899 C   0  0  0  0  0  0  0  0  0  0  0  0
    3.4280    5.8014   15.4336 C   0  0  0  0  0  0  0  0  0  0  0  0
    3.2261    7.2982   12.0207 N   0  0  0  0  0  0  0  0  0  0  0  0
    4.1150    7.7742   10.9798 C   0  0  0  0  0  0  0  0  0  0  0  0
    3.3557    8.6209    9.9721 C   0  0  0  0  0  0  0  0  0  0  0  0
    2.1752    7.8927    9.3692 C   0  0  0  0  0  0  0  0  0  0  0  0
    1.5289    6.9860   10.3506 C   0  0  0  0  0  0  0  0  0  0  0  0
    1.8120    7.4571   11.7530 C   0  0  0  0  0  0  0  0  0  0  0  0
    2.5162    7.2980    8.0917 N   0  0  0  0  0  0  0  0  0  0  0  0
    3.9147    7.1631    7.7579 C   0  0  0  0  0  0  0  0  0  0  0  0
    1.5650    6.8528    7.1420 C   0  0  0  0  0  0  0  0  0  0  0  0
    2.0061    6.5613    5.9819 O   0  0  0  0  0  0  0  0  0  0  0  0
    0.1493    6.7128    7.3992 C   0  0  0  0  0  0  0  0  0  0  0  0
   -0.4675    5.5365    7.7615 C   0  0  0  0  0  0  0  0  0  0  0  0
   -1.8315    5.4836    8.0216 C   0  0  0  0  0  0  0  0  0  0  0  0
   -2.6177    6.6053    7.9258 C   0  0  0  0  0  0  0  0  0  0  0  0
   -2.0142    7.7859    7.5639 C   0  0  0  0  0  0  0  0  0  0  0  0
   -0.6602    7.8369    7.3066 C   0  0  0  0  0  0  0  0  0  0  0  0
   -4.0163    6.5130    8.2006 N   0  0  0  0  0  4  0  0  0  0  0  0
   -4.7615    7.5014    8.0789 O   0  0  0  0  0  0  0  0  0  0  0  0
   -4.5616    5.3323    8.6034 O   0  0  0  0  0  1  0  0  0  0  0  0
    0.3120    4.3022    7.8504 C   0  0  0  0  0  0  0  0  0  0  0  0
   -0.3147    3.2531    8.4714 F   0  0  0  0  0  0  0  0  0  0  0  0
    1.5787    4.5317    8.4124 F   0  0  0  0  0  0  0  0  0  0  0  0
    0.6112    3.8297    6.5630 F   0  0  0  0  0  0  0  0  0  0  0  0
  1  2  1  0
  2  3  1  0
  3  4  2  0
  4  5  1  0
  5  6  2  0
  3  7  1  0
  7  8  2  0
  8  9  1  0
  9 10  2  0
 10 11  1  0
 11 12  2  0
 12 13  1  0
 13 14  2  0
 14 15  1  0
 15 16  2  0
 10 17  1  0
 17 18  1  0
 18 19  1  0
 19 20  1  0
 20 21  1  0
 21 22  1  0
 20 23  1  0
 23 24  1  0
 23 25  1  0
 25 26  2  0
 25 27  1  0
 27 28  2  0
 28 29  1  0
 29 30  2  0
 30 31  1  0
 31 32  2  0
 30 33  1  0
 33 34  2  0
 33 35  1  0
 28 36  1  0
 36 37  1  0
 36 38  1  0
 36 39  1  0
  6  2  1  0
 16  7  1  0
 16 11  1  0
 22 17  1  0
 32 27  1  0
M  CHG  2  33   1  35  -1
M  END
$$$$
