
     RDKit          3D

 39 43  0  0  0  0  0  0  0  0999 V2000
    1.4581    8.1141   16.7543 C   0  0  0  0  0  0  0  0  0  0  0  0
    1.0404    6.7094   16.7984 N   0  0  0  0  0  0  0  0  0  0  0  0
    0.9595    5.7921   15.8329 C   0  0  0  0  0  0  0  0  0  0  0  0
    0.5559    4.6229   16.4403 C   0  0  0  0  0  0  0  0  0  0  0  0
    0.3988    4.8714   17.7859 C   0  0  0  0  0  0  0  0  0  0  0  0
    0.7057    6.1640   17.9642 N   0  0  0  0  0  0  0  0  0  0  0  0
    1.3000    5.9719   14.4411 C   0  0  0  0  0  0  0  0  0  0  0  0
    2.3705    6.6917   14.0525 N   0  0  0  0  0  0  0  0  0  0  0  0
    2.7156    6.8672   12.8005 N   0  0  0  0  0  0  0  0  0  0  0  0
    1.9954    6.3179   11.7789 C   0  0  0  0  0  0  0  0  0  0  0  0
    0.8979    5.5764   12.1182 C   0  0  0  0  0  0  0  0  0  0  0  0
    0.1271    4.9891   11.1451 C   0  0  0  0  0  0  0  0  0  0  0  0
   -0.9671    4.2362   11.4786 C   0  0  0  0  0  0  0  0  0  0  0  0
   -1.3146    4.0544   12.7915 C   0  0  0  0  0  0  0  0  0  0  0  0
   -0.5762    4.6241   13.8128 C   0  0  0  0  0  0  0  0  0  0  0  0
    0.5237    5.3838   13.4626 C   0  0  0  0  0  0  0  0  0  0  0  0
    2.4156    6.4826   10.4391 N   0  0  0  0  0  0  0  0  0  0  0  0
    1.5169    6.2346    9.3296 C   0  0  0  0  0  0  0  0  0  0  0  0
    2.2885    6.1505    8.0232 C   0  0  0  0  0  0  0  0  0  0  0  0
    3.1282    7.3805    7.7607 C   0  0  0  0  0  0  0  0  0  0  0  0
    3.6763    7.9504    9.0166 C   0  0  0  0  0  0  0  0  0  0  0  0
    3.7590    6.8821   10.0753 C   0  0  0  0  0  0  0  0  0  0  0  0
    2.4402    8.3158    6.8922 N   0  0  0  0  0  0  0  0  0  0  0  0
    1.6393    9.3486    7.5064 C   0  0  0  0  0  0  0  0  0  0  0  0
    2.4913    8.2736    5.4779 C   0  0  0  0  0  0  0  0  0  0  0  0
    1.5977    8.9331    4.8519 O   0  0  0  0  0  0  0  0  0  0  0  0
    3.4740    7.5405    4.7117 C   0  0  0  0  0  0  0  0  0  0  0  0
    3.2614    6.3034    4.1465 C   0  0  0  0  0  0  0  0  0  0  0  0
    4.2454    5.6703    3.3969 C   0  0  0  0  0  0  0  0  0  0  0  0
    5.4704    6.2559    3.1921 C   0  0  0  0  0  0  0  0  0  0  0  0
    5.6958    7.4907    3.7521 C   0  0  0  0  0  0  0  0  0  0  0  0
    4.7179    8.1180    4.4954 C   0  0  0  0  0  0  0  0  0  0  0  0
    6.4577    5.5754    2.4160 N   0  0  0  0  0  4  0  0  0  0  0  0
    7.6015    6.0439    2.2780 O   0  0  0  0  0  0  0  0  0  0  0  0
    6.1609    4.3931    1.8096 O   0  0  0  0  0  1  0  0  0  0  0  0
    1.9874    5.6160    4.3552 C   0  0  0  0  0  0  0  0  0  0  0  0
    1.9889    4.2744    4.0734 F   0  0  0  0  0  0  0  0  0  0  0  0
    0.9356    6.2658    3.6885 F   0  0  0  0  0  0  0  0  0  0  0  0
    1.6131    5.6983    5.7054 F   0  0  0  0  0  0  0  0  0  0  0  0
  1  2  1  0
  2  3  1  0
  3  4  2  0
  4  5  1  0
  5  6  2  0
  3  7  1  0
  7  8  2  0
  8  9  1  0
  9 10  2  0
 10 11  1  0
 11 12  2  0
 12 13  1  0
 13 14  2  0
 14 15  1  0
 15 16  2  0
 10 17  1  0
 17 18  1  0
 18 19  1  0
 19 20  1  0
 20 21  1  0
 21 22  1  0
 20 23  1  0
 23 24  1  0
 23 25  1  0
 25 26  2  0
 25 27  1  0
 27 28  2  0
 28 29  1  0
 29 30  2  0
 30 31  1  0
 31 32  2  0
 30 33  1  0
 33 34  2  0
 33 35  1  0
 28 36  1  0
 36 37  1  0
 36 38  1  0
 36 39  1  0
  6  2  1  0
 16  7  1  0
 16 11  1  0
 22 17  1  0
 32 27  1  0
M  CHG  2  33   1  35  -1
M  END
$$$$
