
     RDKit          3D

 39 43  0  0  0  0  0  0  0  0999 V2000
    0.9238    4.0563   14.8419 C   0  0  0  0  0  0  0  0  0  0  0  0
    0.8834    5.4868   15.1608 N   0  0  0  0  0  0  0  0  0  0  0  0
    0.9976    6.5596   14.3759 C   0  0  0  0  0  0  0  0  0  0  0  0
    0.8341    7.6578   15.1922 C   0  0  0  0  0  0  0  0  0  0  0  0
    0.6225    7.2087   16.4769 C   0  0  0  0  0  0  0  0  0  0  0  0
    0.6606    5.8703   16.4146 N   0  0  0  0  0  0  0  0  0  0  0  0
    1.1812    6.5653   12.9435 C   0  0  0  0  0  0  0  0  0  0  0  0
    0.3916    5.8521   12.1171 N   0  0  0  0  0  0  0  0  0  0  0  0
    0.5221    5.8414   10.8131 N   0  0  0  0  0  0  0  0  0  0  0  0
    1.4916    6.5715   10.1877 C   0  0  0  0  0  0  0  0  0  0  0  0
    2.3213    7.3146   10.9807 C   0  0  0  0  0  0  0  0  0  0  0  0
    3.3173    8.0780   10.4228 C   0  0  0  0  0  0  0  0  0  0  0  0
    4.1448    8.8331   11.2105 C   0  0  0  0  0  0  0  0  0  0  0  0
    3.9948    8.8413   12.5725 C   0  0  0  0  0  0  0  0  0  0  0  0
    3.0105    8.0902   13.1887 C   0  0  0  0  0  0  0  0  0  0  0  0
    2.1842    7.3304   12.3827 C   0  0  0  0  0  0  0  0  0  0  0  0
    1.5813    6.5801    8.7768 N   0  0  0  0  0  0  0  0  0  0  0  0
    2.8553    6.4424    8.1000 C   0  0  0  0  0  0  0  0  0  0  0  0
    2.7270    6.8195    6.6336 C   0  0  0  0  0  0  0  0  0  0  0  0
    1.6577    6.0251    5.9178 C   0  0  0  0  0  0  0  0  0  0  0  0
    0.5059    5.7287    6.8056 C   0  0  0  0  0  0  0  0  0  0  0  0
    0.4317    6.7476    7.9126 C   0  0  0  0  0  0  0  0  0  0  0  0
    2.2224    4.8879    5.2178 N   0  0  0  0  0  0  0  0  0  0  0  0
    2.3476    3.6422    5.9375 C   0  0  0  0  0  0  0  0  0  0  0  0
    2.6731    4.9231    3.8760 C   0  0  0  0  0  0  0  0  0  0  0  0
    3.1846    3.8504    3.4145 O   0  0  0  0  0  0  0  0  0  0  0  0
    2.5938    6.0794    3.0117 C   0  0  0  0  0  0  0  0  0  0  0  0
    3.6726    6.8411    2.6231 C   0  0  0  0  0  0  0  0  0  0  0  0
    3.5238    7.9238    1.7649 C   0  0  0  0  0  0  0  0  0  0  0  0
    2.2918    8.2762    1.2717 C   0  0  0  0  0  0  0  0  0  0  0  0
    1.2063    7.5243    1.6528 C   0  0  0  0  0  0  0  0  0  0  0  0
    1.3557    6.4496    2.5043 C   0  0  0  0  0  0  0  0  0  0  0  0
    2.1771    9.3953    0.3916 N   0  0  0  0  0  4  0  0  0  0  0  0
    1.0768    9.7301   -0.0818 O   0  0  0  0  0  0  0  0  0  0  0  0
    3.2789   10.1201    0.0534 O   0  0  0  0  0  1  0  0  0  0  0  0
    5.0059    6.5335    3.1398 C   0  0  0  0  0  0  0  0  0  0  0  0
    5.9157    6.1088    2.2066 F   0  0  0  0  0  0  0  0  0  0  0  0
    4.9459    5.6404    4.2223 F   0  0  0  0  0  0  0  0  0  0  0  0
    5.5799    7.6841    3.7024 F   0  0  0  0  0  0  0  0  0  0  0  0
  1  2  1  0
  2  3  1  0
  3  4  2  0
  4  5  1  0
  5  6  2  0
  3  7  1  0
  7  8  2  0
  8  9  1  0
  9 10  2  0
 10 11  1  0
 11 12  2  0
 12 13  1  0
 13 14  2  0
 14 15  1  0
 15 16  2  0
 10 17  1  0
 17 18  1  0
 18 19  1  0
 19 20  1  0
 20 21  1  0
 21 22  1  0
 20 23  1  0
 23 24  1  0
 23 25  1  0
 25 26  2  0
 25 27  1  0
 27 28  2  0
 28 29  1  0
 29 30  2  0
 30 31  1  0
 31 32  2  0
 30 33  1  0
 33 34  2  0
 33 35  1  0
 28 36  1  0
 36 37  1  0
 36 38  1  0
 36 39  1  0
  6  2  1  0
 16  7  1  0
 16 11  1  0
 22 17  1  0
 32 27  1  0
M  CHG  2  33   1  35  -1
M  END
$$$$
