
     RDKit          3D

 39 43  0  0  0  0  0  0  0  0999 V2000
    1.9632    7.7433   19.7294 C   0  0  0  0  0  0  0  0  0  0  0  0
    1.7861    6.2921   19.6183 N   0  0  0  0  0  0  0  0  0  0  0  0
    1.6329    5.5109   18.5476 C   0  0  0  0  0  0  0  0  0  0  0  0
    1.5593    4.2175   19.0174 C   0  0  0  0  0  0  0  0  0  0  0  0
    1.6708    4.2533   20.3897 C   0  0  0  0  0  0  0  0  0  0  0  0
    1.8082    5.5454   20.7186 N   0  0  0  0  0  0  0  0  0  0  0  0
    1.6219    5.9322   17.1663 C   0  0  0  0  0  0  0  0  0  0  0  0
    2.4464    6.8920   16.7035 N   0  0  0  0  0  0  0  0  0  0  0  0
    2.4715    7.2920   15.4558 N   0  0  0  0  0  0  0  0  0  0  0  0
    1.6429    6.7490   14.5162 C   0  0  0  0  0  0  0  0  0  0  0  0
    0.7851    5.7693   14.9332 C   0  0  0  0  0  0  0  0  0  0  0  0
   -0.0750    5.1731   14.0441 C   0  0  0  0  0  0  0  0  0  0  0  0
   -0.9291    4.1836   14.4528 C   0  0  0  0  0  0  0  0  0  0  0  0
   -0.9420    3.7692   15.7587 C   0  0  0  0  0  0  0  0  0  0  0  0
   -0.0994    4.3356   16.6978 C   0  0  0  0  0  0  0  0  0  0  0  0
    0.7553    5.3349   16.2730 C   0  0  0  0  0  0  0  0  0  0  0  0
    1.7226    7.1646   13.1673 N   0  0  0  0  0  0  0  0  0  0  0  0
    2.5937    8.2493   12.7611 C   0  0  0  0  0  0  0  0  0  0  0  0
    2.2482    8.7173   11.3574 C   0  0  0  0  0  0  0  0  0  0  0  0
    2.2875    7.5972   10.3421 C   0  0  0  0  0  0  0  0  0  0  0  0
    1.8351    6.3099   10.9259 C   0  0  0  0  0  0  0  0  0  0  0  0
    0.9375    6.5662   12.1081 C   0  0  0  0  0  0  0  0  0  0  0  0
    3.5573    7.5603    9.6433 N   0  0  0  0  0  0  0  0  0  0  0  0
    4.7636    7.4738   10.4324 C   0  0  0  0  0  0  0  0  0  0  0  0
    3.6925    7.6178    8.2350 C   0  0  0  0  0  0  0  0  0  0  0  0
    4.8587    7.4132    7.7621 O   0  0  0  0  0  0  0  0  0  0  0  0
    2.6112    7.8917    7.3153 C   0  0  0  0  0  0  0  0  0  0  0  0
    1.9628    6.9377    6.5639 C   0  0  0  0  0  0  0  0  0  0  0  0
    0.9100    7.2718    5.7206 C   0  0  0  0  0  0  0  0  0  0  0  0
    0.4765    8.5694    5.6040 C   0  0  0  0  0  0  0  0  0  0  0  0
    1.1163    9.5316    6.3483 C   0  0  0  0  0  0  0  0  0  0  0  0
    2.1607    9.1984    7.1852 C   0  0  0  0  0  0  0  0  0  0  0  0
   -0.6086    8.8755    4.7272 N   0  0  0  0  0  4  0  0  0  0  0  0
   -1.1465    7.9910    4.0377 O   0  0  0  0  0  0  0  0  0  0  0  0
   -1.0762   10.1505    4.6306 O   0  0  0  0  0  1  0  0  0  0  0  0
    2.3993    5.5430    6.6224 C   0  0  0  0  0  0  0  0  0  0  0  0
    1.3946    4.6106    6.6168 F   0  0  0  0  0  0  0  0  0  0  0  0
    3.2799    5.3230    7.6944 F   0  0  0  0  0  0  0  0  0  0  0  0
    3.1792    5.2366    5.4964 F   0  0  0  0  0  0  0  0  0  0  0  0
  1  2  1  0
  2  3  1  0
  3  4  2  0
  4  5  1  0
  5  6  2  0
  3  7  1  0
  7  8  2  0
  8  9  1  0
  9 10  2  0
 10 11  1  0
 11 12  2  0
 12 13  1  0
 13 14  2  0
 14 15  1  0
 15 16  2  0
 10 17  1  0
 17 18  1  0
 18 19  1  0
 19 20  1  0
 20 21  1  0
 21 22  1  0
 20 23  1  0
 23 24  1  0
 23 25  1  0
 25 26  2  0
 25 27  1  0
 27 28  2  0
 28 29  1  0
 29 30  2  0
 30 31  1  0
 31 32  2  0
 30 33  1  0
 33 34  2  0
 33 35  1  0
 28 36  1  0
 36 37  1  0
 36 38  1  0
 36 39  1  0
  6  2  1  0
 16  7  1  0
 16 11  1  0
 22 17  1  0
 32 27  1  0
M  CHG  2  33   1  35  -1
M  END
$$$$
