
     RDKit          3D

 39 43  0  0  0  0  0  0  0  0999 V2000
    1.6548    2.3983   18.8046 C   0  0  0  0  0  0  0  0  0  0  0  0
    2.1323    3.6060   19.4851 N   0  0  0  0  0  0  0  0  0  0  0  0
    2.5075    4.7908   18.9997 C   0  0  0  0  0  0  0  0  0  0  0  0
    2.8162    5.5770   20.0886 C   0  0  0  0  0  0  0  0  0  0  0  0
    2.6162    4.8287   21.2275 C   0  0  0  0  0  0  0  0  0  0  0  0
    2.1969    3.6248   20.8133 N   0  0  0  0  0  0  0  0  0  0  0  0
    2.5159    5.1916   17.6123 C   0  0  0  0  0  0  0  0  0  0  0  0
    2.9810    4.3869   16.6369 N   0  0  0  0  0  0  0  0  0  0  0  0
    2.9944    4.7127   15.3676 N   0  0  0  0  0  0  0  0  0  0  0  0
    2.5256    5.9203   14.9366 C   0  0  0  0  0  0  0  0  0  0  0  0
    2.0412    6.7761   15.8867 C   0  0  0  0  0  0  0  0  0  0  0  0
    1.5486    8.0068   15.5283 C   0  0  0  0  0  0  0  0  0  0  0  0
    1.0519    8.8643   16.4736 C   0  0  0  0  0  0  0  0  0  0  0  0
    1.0372    8.5101   17.7972 C   0  0  0  0  0  0  0  0  0  0  0  0
    1.5224    7.2845   18.2157 C   0  0  0  0  0  0  0  0  0  0  0  0
    2.0234    6.4299   17.2521 C   0  0  0  0  0  0  0  0  0  0  0  0
    2.5073    6.2288   13.5570 N   0  0  0  0  0  0  0  0  0  0  0  0
    2.1228    5.2424   12.5674 C   0  0  0  0  0  0  0  0  0  0  0  0
    2.5077    5.7047   11.1720 C   0  0  0  0  0  0  0  0  0  0  0  0
    1.9287    7.0579   10.8247 C   0  0  0  0  0  0  0  0  0  0  0  0
    1.8652    7.9493   12.0096 C   0  0  0  0  0  0  0  0  0  0  0  0
    2.8867    7.5235   13.0314 C   0  0  0  0  0  0  0  0  0  0  0  0
    0.6995    6.9291   10.0667 N   0  0  0  0  0  0  0  0  0  0  0  0
   -0.5465    6.8927   10.7958 C   0  0  0  0  0  0  0  0  0  0  0  0
    0.6420    6.8223    8.6560 C   0  0  0  0  0  0  0  0  0  0  0  0
   -0.4755    6.4715    8.1525 O   0  0  0  0  0  0  0  0  0  0  0  0
    1.7519    7.0788    7.7657 C   0  0  0  0  0  0  0  0  0  0  0  0
    2.4035    6.1149    7.0299 C   0  0  0  0  0  0  0  0  0  0  0  0
    3.4460    6.4405    6.1707 C   0  0  0  0  0  0  0  0  0  0  0  0
    3.8672    7.7391    6.0238 C   0  0  0  0  0  0  0  0  0  0  0  0
    3.2255    8.7109    6.7537 C   0  0  0  0  0  0  0  0  0  0  0  0
    2.1906    8.3862    7.6056 C   0  0  0  0  0  0  0  0  0  0  0  0
    4.9421    8.0363    5.1313 N   0  0  0  0  0  4  0  0  0  0  0  0
    5.3582    9.2000    4.9919 O   0  0  0  0  0  0  0  0  0  0  0  0
    5.5339    7.0428    4.4127 O   0  0  0  0  0  1  0  0  0  0  0  0
    2.0201    4.7101    7.1670 C   0  0  0  0  0  0  0  0  0  0  0  0
    0.7174    4.4879    7.5311 F   0  0  0  0  0  0  0  0  0  0  0  0
    2.9011    4.0154    8.0121 F   0  0  0  0  0  0  0  0  0  0  0  0
    2.1659    4.0505    5.9367 F   0  0  0  0  0  0  0  0  0  0  0  0
  1  2  1  0
  2  3  1  0
  3  4  2  0
  4  5  1  0
  5  6  2  0
  3  7  1  0
  7  8  2  0
  8  9  1  0
  9 10  2  0
 10 11  1  0
 11 12  2  0
 12 13  1  0
 13 14  2  0
 14 15  1  0
 15 16  2  0
 10 17  1  0
 17 18  1  0
 18 19  1  0
 19 20  1  0
 20 21  1  0
 21 22  1  0
 20 23  1  0
 23 24  1  0
 23 25  1  0
 25 26  2  0
 25 27  1  0
 27 28  2  0
 28 29  1  0
 29 30  2  0
 30 31  1  0
 31 32  2  0
 30 33  1  0
 33 34  2  0
 33 35  1  0
 28 36  1  0
 36 37  1  0
 36 38  1  0
 36 39  1  0
  6  2  1  0
 16  7  1  0
 16 11  1  0
 22 17  1  0
 32 27  1  0
M  CHG  2  33   1  35  -1
M  END
$$$$
