
     RDKit          3D

 39 43  0  0  0  0  0  0  0  0999 V2000
    4.5614    7.4545   18.1516 C   0  0  0  0  0  0  0  0  0  0  0  0
    3.1430    7.2093   18.4304 N   0  0  0  0  0  0  0  0  0  0  0  0
    2.0985    7.0971   17.6079 C   0  0  0  0  0  0  0  0  0  0  0  0
    1.0070    6.8179   18.4015 C   0  0  0  0  0  0  0  0  0  0  0  0
    1.4308    6.7697   19.7111 C   0  0  0  0  0  0  0  0  0  0  0  0
    2.7482    7.0156   19.6855 N   0  0  0  0  0  0  0  0  0  0  0  0
    2.1226    7.1781   16.1662 C   0  0  0  0  0  0  0  0  0  0  0  0
    2.8670    8.0910   15.5123 N   0  0  0  0  0  0  0  0  0  0  0  0
    2.9215    8.1870   14.2065 N   0  0  0  0  0  0  0  0  0  0  0  0
    2.2099    7.3465   13.3995 C   0  0  0  0  0  0  0  0  0  0  0  0
    1.4372    6.3996   14.0126 C   0  0  0  0  0  0  0  0  0  0  0  0
    0.6969    5.5159   13.2664 C   0  0  0  0  0  0  0  0  0  0  0  0
   -0.0706    4.5582   13.8740 C   0  0  0  0  0  0  0  0  0  0  0  0
   -0.1149    4.4634   15.2402 C   0  0  0  0  0  0  0  0  0  0  0  0
    0.6083    5.3280   16.0416 C   0  0  0  0  0  0  0  0  0  0  0  0
    1.3763    6.2916   15.4160 C   0  0  0  0  0  0  0  0  0  0  0  0
    2.3228    7.4400   11.9934 N   0  0  0  0  0  0  0  0  0  0  0  0
    2.2343    6.2658   11.1486 C   0  0  0  0  0  0  0  0  0  0  0  0
    2.7189    6.5788    9.7429 C   0  0  0  0  0  0  0  0  0  0  0  0
    1.9807    7.7401    9.1158 C   0  0  0  0  0  0  0  0  0  0  0  0
    1.6206    8.7704   10.1215 C   0  0  0  0  0  0  0  0  0  0  0  0
    2.5548    8.6899   11.3003 C   0  0  0  0  0  0  0  0  0  0  0  0
    0.8978    7.2828    8.2670 N   0  0  0  0  0  0  0  0  0  0  0  0
   -0.3956    7.0700    8.8730 C   0  0  0  0  0  0  0  0  0  0  0  0
    1.0297    7.0172    6.8825 C   0  0  0  0  0  0  0  0  0  0  0  0
   -0.0502    6.8602    6.2233 O   0  0  0  0  0  0  0  0  0  0  0  0
    2.2898    6.9119    6.1815 C   0  0  0  0  0  0  0  0  0  0  0  0
    2.9738    7.9757    5.6378 C   0  0  0  0  0  0  0  0  0  0  0  0
    4.1971    7.8019    5.0019 C   0  0  0  0  0  0  0  0  0  0  0  0
    4.7706    6.5593    4.8908 C   0  0  0  0  0  0  0  0  0  0  0  0
    4.0972    5.4886    5.4287 C   0  0  0  0  0  0  0  0  0  0  0  0
    2.8834    5.6628    6.0599 C   0  0  0  0  0  0  0  0  0  0  0  0
    6.0293    6.4189    4.2304 N   0  0  0  0  0  4  0  0  0  0  0  0
    6.5775    7.3899    3.6794 O   0  0  0  0  0  0  0  0  0  0  0  0
    6.6551    5.2104    4.1928 O   0  0  0  0  0  1  0  0  0  0  0  0
    2.3989    9.3192    5.6978 C   0  0  0  0  0  0  0  0  0  0  0  0
    3.1543   10.3093    5.1250 F   0  0  0  0  0  0  0  0  0  0  0  0
    2.0323    9.6650    7.0089 F   0  0  0  0  0  0  0  0  0  0  0  0
    1.1798    9.3511    5.0030 F   0  0  0  0  0  0  0  0  0  0  0  0
  1  2  1  0
  2  3  1  0
  3  4  2  0
  4  5  1  0
  5  6  2  0
  3  7  1  0
  7  8  2  0
  8  9  1  0
  9 10  2  0
 10 11  1  0
 11 12  2  0
 12 13  1  0
 13 14  2  0
 14 15  1  0
 15 16  2  0
 10 17  1  0
 17 18  1  0
 18 19  1  0
 19 20  1  0
 20 21  1  0
 21 22  1  0
 20 23  1  0
 23 24  1  0
 23 25  1  0
 25 26  2  0
 25 27  1  0
 27 28  2  0
 28 29  1  0
 29 30  2  0
 30 31  1  0
 31 32  2  0
 30 33  1  0
 33 34  2  0
 33 35  1  0
 28 36  1  0
 36 37  1  0
 36 38  1  0
 36 39  1  0
  6  2  1  0
 16  7  1  0
 16 11  1  0
 22 17  1  0
 32 27  1  0
M  CHG  2  33   1  35  -1
M  END
$$$$
