
     RDKit          3D

 39 43  0  0  0  0  0  0  0  0999 V2000
   -0.0840    6.4856   16.5550 C   0  0  0  0  0  0  0  0  0  0  0  0
    0.1788    5.0504   16.4115 N   0  0  0  0  0  0  0  0  0  0  0  0
    0.4815    4.3217   15.3356 C   0  0  0  0  0  0  0  0  0  0  0  0
    0.6734    3.0318   15.7810 C   0  0  0  0  0  0  0  0  0  0  0  0
    0.4753    3.0155   17.1440 C   0  0  0  0  0  0  0  0  0  0  0  0
    0.1733    4.2743   17.4915 N   0  0  0  0  0  0  0  0  0  0  0  0
    0.6481    4.8050   13.9850 C   0  0  0  0  0  0  0  0  0  0  0  0
    0.0513    4.2117   12.9330 N   0  0  0  0  0  0  0  0  0  0  0  0
    0.1712    4.6284   11.6963 N   0  0  0  0  0  0  0  0  0  0  0  0
    0.9280    5.7205   11.3822 C   0  0  0  0  0  0  0  0  0  0  0  0
    1.5561    6.3612   12.4141 C   0  0  0  0  0  0  0  0  0  0  0  0
    2.3309    7.4697   12.1761 C   0  0  0  0  0  0  0  0  0  0  0  0
    2.9539    8.1225   13.2063 C   0  0  0  0  0  0  0  0  0  0  0  0
    2.8160    7.6813   14.4961 C   0  0  0  0  0  0  0  0  0  0  0  0
    2.0500    6.5690   14.7941 C   0  0  0  0  0  0  0  0  0  0  0  0
    1.4292    5.9178   13.7452 C   0  0  0  0  0  0  0  0  0  0  0  0
    1.0030    6.1780   10.0467 N   0  0  0  0  0  0  0  0  0  0  0  0
    0.7895    7.5718    9.7125 C   0  0  0  0  0  0  0  0  0  0  0  0
    0.5879    7.7395    8.2157 C   0  0  0  0  0  0  0  0  0  0  0  0
    1.7299    7.1689    7.4052 C   0  0  0  0  0  0  0  0  0  0  0  0
    2.2998    5.9533    8.0379 C   0  0  0  0  0  0  0  0  0  0  0  0
    1.2710    5.3024    8.9250 C   0  0  0  0  0  0  0  0  0  0  0  0
    2.6857    8.1963    7.0407 N   0  0  0  0  0  0  0  0  0  0  0  0
    2.7741    9.3688    7.8792 C   0  0  0  0  0  0  0  0  0  0  0  0
    3.5301    8.1312    5.9060 C   0  0  0  0  0  0  0  0  0  0  0  0
    4.7151    8.5798    6.0465 O   0  0  0  0  0  0  0  0  0  0  0  0
    3.1394    7.5999    4.6194 C   0  0  0  0  0  0  0  0  0  0  0  0
    3.6280    6.4345    4.0732 C   0  0  0  0  0  0  0  0  0  0  0  0
    3.1837    5.9694    2.8414 C   0  0  0  0  0  0  0  0  0  0  0  0
    2.2388    6.6570    2.1204 C   0  0  0  0  0  0  0  0  0  0  0  0
    1.7437    7.8227    2.6543 C   0  0  0  0  0  0  0  0  0  0  0  0
    2.1854    8.2828    3.8772 C   0  0  0  0  0  0  0  0  0  0  0  0
    1.8059    6.1486    0.8578 N   0  0  0  0  0  4  0  0  0  0  0  0
    2.2822    5.0989    0.3905 O   0  0  0  0  0  0  0  0  0  0  0  0
    0.8572    6.8094    0.1390 O   0  0  0  0  0  1  0  0  0  0  0  0
    4.6584    5.6743    4.7800 C   0  0  0  0  0  0  0  0  0  0  0  0
    5.1102    4.5528    4.1341 F   0  0  0  0  0  0  0  0  0  0  0  0
    4.2649    5.3705    6.0937 F   0  0  0  0  0  0  0  0  0  0  0  0
    5.8014    6.4685    4.9612 F   0  0  0  0  0  0  0  0  0  0  0  0
  1  2  1  0
  2  3  1  0
  3  4  2  0
  4  5  1  0
  5  6  2  0
  3  7  1  0
  7  8  2  0
  8  9  1  0
  9 10  2  0
 10 11  1  0
 11 12  2  0
 12 13  1  0
 13 14  2  0
 14 15  1  0
 15 16  2  0
 10 17  1  0
 17 18  1  0
 18 19  1  0
 19 20  1  0
 20 21  1  0
 21 22  1  0
 20 23  1  0
 23 24  1  0
 23 25  1  0
 25 26  2  0
 25 27  1  0
 27 28  2  0
 28 29  1  0
 29 30  2  0
 30 31  1  0
 31 32  2  0
 30 33  1  0
 33 34  2  0
 33 35  1  0
 28 36  1  0
 36 37  1  0
 36 38  1  0
 36 39  1  0
  6  2  1  0
 16  7  1  0
 16 11  1  0
 22 17  1  0
 32 27  1  0
M  CHG  2  33   1  35  -1
M  END
$$$$
