
     RDKit          3D

 39 43  0  0  0  0  0  0  0  0999 V2000
    2.2580    3.1666   14.8567 C   0  0  0  0  0  0  0  0  0  0  0  0
    1.2184    4.1529   15.1668 N   0  0  0  0  0  0  0  0  0  0  0  0
    0.6840    5.1216   14.4210 C   0  0  0  0  0  0  0  0  0  0  0  0
   -0.2884    5.7167   15.1951 C   0  0  0  0  0  0  0  0  0  0  0  0
   -0.3145    5.0783   16.4153 C   0  0  0  0  0  0  0  0  0  0  0  0
    0.6260    4.1249   16.3571 N   0  0  0  0  0  0  0  0  0  0  0  0
    1.0098    5.4337   13.0491 C   0  0  0  0  0  0  0  0  0  0  0  0
    1.3419    4.4805   12.1569 N   0  0  0  0  0  0  0  0  0  0  0  0
    1.6330    4.7254   10.9028 N   0  0  0  0  0  0  0  0  0  0  0  0
    1.6184    5.9957   10.4025 C   0  0  0  0  0  0  0  0  0  0  0  0
    1.2870    7.0022   11.2667 C   0  0  0  0  0  0  0  0  0  0  0  0
    1.2468    8.3051   10.8346 C   0  0  0  0  0  0  0  0  0  0  0  0
    0.9051    9.3166   11.6923 C   0  0  0  0  0  0  0  0  0  0  0  0
    0.5966    9.0477   12.9999 C   0  0  0  0  0  0  0  0  0  0  0  0
    0.6228    7.7548   13.4903 C   0  0  0  0  0  0  0  0  0  0  0  0
    0.9721    6.7438   12.6153 C   0  0  0  0  0  0  0  0  0  0  0  0
    1.8899    6.2283    9.0348 N   0  0  0  0  0  0  0  0  0  0  0  0
    2.8283    7.2493    8.6138 C   0  0  0  0  0  0  0  0  0  0  0  0
    2.6873    7.5266    7.1264 C   0  0  0  0  0  0  0  0  0  0  0  0
    2.8448    6.2815    6.2827 C   0  0  0  0  0  0  0  0  0  0  0  0
    2.2929    5.0832    6.9627 C   0  0  0  0  0  0  0  0  0  0  0  0
    1.2466    5.4944    7.9651 C   0  0  0  0  0  0  0  0  0  0  0  0
    4.1975    6.1519    5.7774 N   0  0  0  0  0  0  0  0  0  0  0  0
    5.2535    5.8861    6.7259 C   0  0  0  0  0  0  0  0  0  0  0  0
    4.5533    6.2834    4.4132 C   0  0  0  0  0  0  0  0  0  0  0  0
    5.7951    6.4101    4.1541 O   0  0  0  0  0  0  0  0  0  0  0  0
    3.6135    6.2856    3.3145 C   0  0  0  0  0  0  0  0  0  0  0  0
    3.3017    7.3900    2.5541 C   0  0  0  0  0  0  0  0  0  0  0  0
    2.4085    7.3103    1.4926 C   0  0  0  0  0  0  0  0  0  0  0  0
    1.8011    6.1241    1.1619 C   0  0  0  0  0  0  0  0  0  0  0  0
    2.1032    5.0141    1.9140 C   0  0  0  0  0  0  0  0  0  0  0  0
    2.9903    5.0948    2.9670 C   0  0  0  0  0  0  0  0  0  0  0  0
    0.8883    6.0800    0.0642 N   0  0  0  0  0  4  0  0  0  0  0  0
    0.6766    7.0858   -0.6360 O   0  0  0  0  0  0  0  0  0  0  0  0
    0.2296    4.9270   -0.2366 O   0  0  0  0  0  1  0  0  0  0  0  0
    3.8934    8.6880    2.8771 C   0  0  0  0  0  0  0  0  0  0  0  0
    5.2504    8.7760    2.7046 F   0  0  0  0  0  0  0  0  0  0  0  0
    3.5237    9.1178    4.1622 F   0  0  0  0  0  0  0  0  0  0  0  0
    3.3605    9.6802    2.0395 F   0  0  0  0  0  0  0  0  0  0  0  0
  1  2  1  0
  2  3  1  0
  3  4  2  0
  4  5  1  0
  5  6  2  0
  3  7  1  0
  7  8  2  0
  8  9  1  0
  9 10  2  0
 10 11  1  0
 11 12  2  0
 12 13  1  0
 13 14  2  0
 14 15  1  0
 15 16  2  0
 10 17  1  0
 17 18  1  0
 18 19  1  0
 19 20  1  0
 20 21  1  0
 21 22  1  0
 20 23  1  0
 23 24  1  0
 23 25  1  0
 25 26  2  0
 25 27  1  0
 27 28  2  0
 28 29  1  0
 29 30  2  0
 30 31  1  0
 31 32  2  0
 30 33  1  0
 33 34  2  0
 33 35  1  0
 28 36  1  0
 36 37  1  0
 36 38  1  0
 36 39  1  0
  6  2  1  0
 16  7  1  0
 16 11  1  0
 22 17  1  0
 32 27  1  0
M  CHG  2  33   1  35  -1
M  END
$$$$
