
     RDKit          3D

 39 43  0  0  0  0  0  0  0  0999 V2000
    2.9967    4.1799   17.8308 C   0  0  0  0  0  0  0  0  0  0  0  0
    2.9475    5.5736   18.2832 N   0  0  0  0  0  0  0  0  0  0  0  0
    2.8386    6.7114   17.5949 C   0  0  0  0  0  0  0  0  0  0  0  0
    2.7905    7.7261   18.5262 C   0  0  0  0  0  0  0  0  0  0  0  0
    2.8751    7.1613   19.7796 C   0  0  0  0  0  0  0  0  0  0  0  0
    2.9705    5.8384   19.5863 N   0  0  0  0  0  0  0  0  0  0  0  0
    2.7195    6.8451   16.1619 C   0  0  0  0  0  0  0  0  0  0  0  0
    3.7473    7.2535   15.3926 N   0  0  0  0  0  0  0  0  0  0  0  0
    3.6788    7.3762   14.0896 N   0  0  0  0  0  0  0  0  0  0  0  0
    2.5320    7.0907   13.4060 C   0  0  0  0  0  0  0  0  0  0  0  0
    1.4571    6.6711   14.1396 C   0  0  0  0  0  0  0  0  0  0  0  0
    0.2709    6.3612   13.5210 C   0  0  0  0  0  0  0  0  0  0  0  0
   -0.8062    5.9299   14.2486 C   0  0  0  0  0  0  0  0  0  0  0  0
   -0.7208    5.7994   15.6099 C   0  0  0  0  0  0  0  0  0  0  0  0
    0.4479    6.0994   16.2859 C   0  0  0  0  0  0  0  0  0  0  0  0
    1.5262    6.5363   15.5402 C   0  0  0  0  0  0  0  0  0  0  0  0
    2.4981    7.1856   11.9959 N   0  0  0  0  0  0  0  0  0  0  0  0
    3.4052    6.4193   11.1651 C   0  0  0  0  0  0  0  0  0  0  0  0
    3.3999    6.9448    9.7393 C   0  0  0  0  0  0  0  0  0  0  0  0
    2.0156    6.9685    9.1309 C   0  0  0  0  0  0  0  0  0  0  0  0
    0.9765    7.2895   10.1408 C   0  0  0  0  0  0  0  0  0  0  0  0
    1.5872    8.0573   11.2838 C   0  0  0  0  0  0  0  0  0  0  0  0
    1.7699    5.7866    8.3279 N   0  0  0  0  0  0  0  0  0  0  0  0
    1.1279    4.6582    8.9604 C   0  0  0  0  0  0  0  0  0  0  0  0
    2.1319    5.6613    6.9648 C   0  0  0  0  0  0  0  0  0  0  0  0
    1.9933    4.5085    6.4383 O   0  0  0  0  0  0  0  0  0  0  0  0
    2.6424    6.7386    6.1469 C   0  0  0  0  0  0  0  0  0  0  0  0
    3.9138    6.7867    5.6211 C   0  0  0  0  0  0  0  0  0  0  0  0
    4.3263    7.8429    4.8177 C   0  0  0  0  0  0  0  0  0  0  0  0
    3.4795    8.8814    4.5182 C   0  0  0  0  0  0  0  0  0  0  0  0
    2.2076    8.8458    5.0379 C   0  0  0  0  0  0  0  0  0  0  0  0
    1.7995    7.7966    5.8346 C   0  0  0  0  0  0  0  0  0  0  0  0
    3.9382    9.9501    3.6890 N   0  0  0  0  0  4  0  0  0  0  0  0
    5.0875    9.9465    3.2137 O   0  0  0  0  0  0  0  0  0  0  0  0
    3.1187   10.9989    3.4028 O   0  0  0  0  0  1  0  0  0  0  0  0
    4.8709    5.7248    5.9299 C   0  0  0  0  0  0  0  0  0  0  0  0
    4.6434    5.0488    7.1005 F   0  0  0  0  0  0  0  0  0  0  0  0
    6.1947    6.1906    5.8706 F   0  0  0  0  0  0  0  0  0  0  0  0
    4.8313    4.7380    4.9326 F   0  0  0  0  0  0  0  0  0  0  0  0
  1  2  1  0
  2  3  1  0
  3  4  2  0
  4  5  1  0
  5  6  2  0
  3  7  1  0
  7  8  2  0
  8  9  1  0
  9 10  2  0
 10 11  1  0
 11 12  2  0
 12 13  1  0
 13 14  2  0
 14 15  1  0
 15 16  2  0
 10 17  1  0
 17 18  1  0
 18 19  1  0
 19 20  1  0
 20 21  1  0
 21 22  1  0
 20 23  1  0
 23 24  1  0
 23 25  1  0
 25 26  2  0
 25 27  1  0
 27 28  2  0
 28 29  1  0
 29 30  2  0
 30 31  1  0
 31 32  2  0
 30 33  1  0
 33 34  2  0
 33 35  1  0
 28 36  1  0
 36 37  1  0
 36 38  1  0
 36 39  1  0
  6  2  1  0
 16  7  1  0
 16 11  1  0
 22 17  1  0
 32 27  1  0
M  CHG  2  33   1  35  -1
M  END
$$$$
