
     RDKit          3D

 39 43  0  0  0  0  0  0  0  0999 V2000
    1.5869    8.9367    1.9366 C   0  0  0  0  0  0  0  0  0  0  0  0
    2.6772    7.9582    1.8780 N   0  0  0  0  0  0  0  0  0  0  0  0
    3.1919    7.1673    2.8213 C   0  0  0  0  0  0  0  0  0  0  0  0
    4.1664    6.4118    2.2061 C   0  0  0  0  0  0  0  0  0  0  0  0
    4.2164    6.7761    0.8788 C   0  0  0  0  0  0  0  0  0  0  0  0
    3.2866    7.7281    0.7186 N   0  0  0  0  0  0  0  0  0  0  0  0
    2.7606    7.0706    4.1962 C   0  0  0  0  0  0  0  0  0  0  0  0
    1.5221    7.4305    4.5855 N   0  0  0  0  0  0  0  0  0  0  0  0
    1.0931    7.3467    5.8210 N   0  0  0  0  0  0  0  0  0  0  0  0
    1.8925    6.8763    6.8228 C   0  0  0  0  0  0  0  0  0  0  0  0
    3.1610    6.4963    6.4817 C   0  0  0  0  0  0  0  0  0  0  0  0
    4.0212    6.0089    7.4347 C   0  0  0  0  0  0  0  0  0  0  0  0
    5.2893    5.6163    7.0978 C   0  0  0  0  0  0  0  0  0  0  0  0
    5.7246    5.7027    5.8015 C   0  0  0  0  0  0  0  0  0  0  0  0
    4.9022    6.1878    4.8010 C   0  0  0  0  0  0  0  0  0  0  0  0
    3.6262    6.5833    5.1548 C   0  0  0  0  0  0  0  0  0  0  0  0
    1.3907    6.7512    8.1385 N   0  0  0  0  0  0  0  0  0  0  0  0
    2.2526    6.9034    9.2936 C   0  0  0  0  0  0  0  0  0  0  0  0
    1.5627    6.3944   10.5482 C   0  0  0  0  0  0  0  0  0  0  0  0
    0.2273    7.0610   10.7916 C   0  0  0  0  0  0  0  0  0  0  0  0
   -0.4750    7.3658    9.5201 C   0  0  0  0  0  0  0  0  0  0  0  0
    0.0062    6.4436    8.4306 C   0  0  0  0  0  0  0  0  0  0  0  0
    0.3485    8.1643   11.7244 N   0  0  0  0  0  0  0  0  0  0  0  0
    0.3152    9.5073   11.1947 C   0  0  0  0  0  0  0  0  0  0  0  0
    0.5118    8.0100   13.1224 C   0  0  0  0  0  0  0  0  0  0  0  0
    0.6255    9.0790   13.8078 O   0  0  0  0  0  0  0  0  0  0  0  0
    0.5598    6.7390   13.8097 C   0  0  0  0  0  0  0  0  0  0  0  0
    1.7050    6.1649   14.3137 C   0  0  0  0  0  0  0  0  0  0  0  0
    1.6703    4.9514   14.9899 C   0  0  0  0  0  0  0  0  0  0  0  0
    0.4894    4.2771   15.1804 C   0  0  0  0  0  0  0  0  0  0  0  0
   -0.6611    4.8392   14.6811 C   0  0  0  0  0  0  0  0  0  0  0  0
   -0.6250    6.0439   14.0106 C   0  0  0  0  0  0  0  0  0  0  0  0
    0.4921    3.0321   15.8804 N   0  0  0  0  0  4  0  0  0  0  0  0
    1.5495    2.5409   16.3136 O   0  0  0  0  0  0  0  0  0  0  0  0
   -0.6718    2.3567   16.0869 O   0  0  0  0  0  1  0  0  0  0  0  0
    2.9972    6.8208   14.1154 C   0  0  0  0  0  0  0  0  0  0  0  0
    3.1355    8.0441   14.7183 F   0  0  0  0  0  0  0  0  0  0  0  0
    3.3351    6.8932   12.7540 F   0  0  0  0  0  0  0  0  0  0  0  0
    4.0235    6.0341   14.6611 F   0  0  0  0  0  0  0  0  0  0  0  0
  1  2  1  0
  2  3  1  0
  3  4  2  0
  4  5  1  0
  5  6  2  0
  3  7  1  0
  7  8  2  0
  8  9  1  0
  9 10  2  0
 10 11  1  0
 11 12  2  0
 12 13  1  0
 13 14  2  0
 14 15  1  0
 15 16  2  0
 10 17  1  0
 17 18  1  0
 18 19  1  0
 19 20  1  0
 20 21  1  0
 21 22  1  0
 20 23  1  0
 23 24  1  0
 23 25  1  0
 25 26  2  0
 25 27  1  0
 27 28  2  0
 28 29  1  0
 29 30  2  0
 30 31  1  0
 31 32  2  0
 30 33  1  0
 33 34  2  0
 33 35  1  0
 28 36  1  0
 36 37  1  0
 36 38  1  0
 36 39  1  0
  6  2  1  0
 16  7  1  0
 16 11  1  0
 22 17  1  0
 32 27  1  0
M  CHG  2  33   1  35  -1
M  END
$$$$
