
     RDKit          3D

 39 43  0  0  0  0  0  0  0  0999 V2000
    1.0576    9.4245   17.7151 C   0  0  0  0  0  0  0  0  0  0  0  0
    1.7754    8.1980   18.0758 N   0  0  0  0  0  0  0  0  0  0  0  0
    2.1349    7.1474   17.3361 C   0  0  0  0  0  0  0  0  0  0  0  0
    2.8314    6.3028   18.1731 C   0  0  0  0  0  0  0  0  0  0  0  0
    2.8733    6.8780   19.4239 C   0  0  0  0  0  0  0  0  0  0  0  0
    2.2133    8.0401   19.3216 N   0  0  0  0  0  0  0  0  0  0  0  0
    1.9039    6.9682   15.9219 C   0  0  0  0  0  0  0  0  0  0  0  0
    2.2777    7.8891   15.0125 N   0  0  0  0  0  0  0  0  0  0  0  0
    2.0939    7.7556   13.7218 N   0  0  0  0  0  0  0  0  0  0  0  0
    1.4963    6.6455   13.1979 C   0  0  0  0  0  0  0  0  0  0  0  0
    1.0973    5.6783   14.0782 C   0  0  0  0  0  0  0  0  0  0  0  0
    0.4931    4.5314   13.6249 C   0  0  0  0  0  0  0  0  0  0  0  0
    0.1009    3.5540   14.5002 C   0  0  0  0  0  0  0  0  0  0  0  0
    0.3040    3.7019   15.8472 C   0  0  0  0  0  0  0  0  0  0  0  0
    0.9057    4.8367   16.3600 C   0  0  0  0  0  0  0  0  0  0  0  0
    1.2939    5.8166   15.4663 C   0  0  0  0  0  0  0  0  0  0  0  0
    1.3525    6.5044   11.7986 N   0  0  0  0  0  0  0  0  0  0  0  0
    0.2858    7.1698   11.0778 C   0  0  0  0  0  0  0  0  0  0  0  0
    0.1463    6.5969    9.6773 C   0  0  0  0  0  0  0  0  0  0  0  0
    1.4363    6.6577    8.8904 C   0  0  0  0  0  0  0  0  0  0  0  0
    2.6212    6.4524    9.7602 C   0  0  0  0  0  0  0  0  0  0  0  0
    2.2293    5.6805   10.9929 C   0  0  0  0  0  0  0  0  0  0  0  0
    1.4790    7.8262    8.0332 N   0  0  0  0  0  0  0  0  0  0  0  0
    1.1967    9.1127    8.6255 C   0  0  0  0  0  0  0  0  0  0  0  0
    1.7663    7.7864    6.6473 C   0  0  0  0  0  0  0  0  0  0  0  0
    1.7915    8.9041    6.0345 O   0  0  0  0  0  0  0  0  0  0  0  0
    2.0257    6.5791    5.8954 C   0  0  0  0  0  0  0  0  0  0  0  0
    3.2406    6.2509    5.3374 C   0  0  0  0  0  0  0  0  0  0  0  0
    3.4240    5.0565    4.6512 C   0  0  0  0  0  0  0  0  0  0  0  0
    2.3973    4.1569    4.5026 C   0  0  0  0  0  0  0  0  0  0  0  0
    1.1788    4.4732    5.0542 C   0  0  0  0  0  0  0  0  0  0  0  0
    0.9986    5.6589    5.7354 C   0  0  0  0  0  0  0  0  0  0  0  0
    2.6227    2.9392    3.7909 N   0  0  0  0  0  4  0  0  0  0  0  0
    1.7188    2.0950    3.6599 O   0  0  0  0  0  0  0  0  0  0  0  0
    3.8403    2.6802    3.2396 O   0  0  0  0  0  1  0  0  0  0  0  0
    4.3636    7.1827    5.4362 C   0  0  0  0  0  0  0  0  0  0  0  0
    4.8157    7.4278    6.7069 F   0  0  0  0  0  0  0  0  0  0  0  0
    4.0973    8.3845    4.7597 F   0  0  0  0  0  0  0  0  0  0  0  0
    5.4762    6.6677    4.7530 F   0  0  0  0  0  0  0  0  0  0  0  0
  1  2  1  0
  2  3  1  0
  3  4  2  0
  4  5  1  0
  5  6  2  0
  3  7  1  0
  7  8  2  0
  8  9  1  0
  9 10  2  0
 10 11  1  0
 11 12  2  0
 12 13  1  0
 13 14  2  0
 14 15  1  0
 15 16  2  0
 10 17  1  0
 17 18  1  0
 18 19  1  0
 19 20  1  0
 20 21  1  0
 21 22  1  0
 20 23  1  0
 23 24  1  0
 23 25  1  0
 25 26  2  0
 25 27  1  0
 27 28  2  0
 28 29  1  0
 29 30  2  0
 30 31  1  0
 31 32  2  0
 30 33  1  0
 33 34  2  0
 33 35  1  0
 28 36  1  0
 36 37  1  0
 36 38  1  0
 36 39  1  0
  6  2  1  0
 16  7  1  0
 16 11  1  0
 22 17  1  0
 32 27  1  0
M  CHG  2  33   1  35  -1
M  END
$$$$
