
     RDKit          3D

 39 43  0  0  0  0  0  0  0  0999 V2000
    0.6235    9.5607   17.8967 C   0  0  0  0  0  0  0  0  0  0  0  0
    1.1493    8.2732   18.3612 N   0  0  0  0  0  0  0  0  0  0  0  0
    1.5823    7.2105   17.6806 C   0  0  0  0  0  0  0  0  0  0  0  0
    2.0114    6.2966   18.6185 C   0  0  0  0  0  0  0  0  0  0  0  0
    1.8202    6.8434   19.8681 C   0  0  0  0  0  0  0  0  0  0  0  0
    1.2888    8.0573   19.6660 N   0  0  0  0  0  0  0  0  0  0  0  0
    1.6556    7.0766   16.2446 C   0  0  0  0  0  0  0  0  0  0  0  0
    2.2584    7.9985   15.4688 N   0  0  0  0  0  0  0  0  0  0  0  0
    2.3530    7.9050   14.1651 N   0  0  0  0  0  0  0  0  0  0  0  0
    1.8341    6.8395   13.4873 C   0  0  0  0  0  0  0  0  0  0  0  0
    1.2109    5.8734   14.2275 C   0  0  0  0  0  0  0  0  0  0  0  0
    0.6686    4.7699   13.6160 C   0  0  0  0  0  0  0  0  0  0  0  0
    0.0528    3.7933   14.3525 C   0  0  0  0  0  0  0  0  0  0  0  0
   -0.0345    3.8989   15.7159 C   0  0  0  0  0  0  0  0  0  0  0  0
    0.4918    4.9891   16.3846 C   0  0  0  0  0  0  0  0  0  0  0  0
    1.1079    5.9687   15.6293 C   0  0  0  0  0  0  0  0  0  0  0  0
    1.9909    6.7388   12.0859 N   0  0  0  0  0  0  0  0  0  0  0  0
    0.8504    6.5662   11.2086 C   0  0  0  0  0  0  0  0  0  0  0  0
    1.3014    6.1498    9.8185 C   0  0  0  0  0  0  0  0  0  0  0  0
    2.2946    7.1161    9.2130 C   0  0  0  0  0  0  0  0  0  0  0  0
    3.1935    7.6971   10.2412 C   0  0  0  0  0  0  0  0  0  0  0  0
    3.2813    6.7763   11.4301 C   0  0  0  0  0  0  0  0  0  0  0  0
    1.6402    8.0687    8.3376 N   0  0  0  0  0  0  0  0  0  0  0  0
    1.2378    9.3381    8.8962 C   0  0  0  0  0  0  0  0  0  0  0  0
    1.3568    7.8294    6.9711 C   0  0  0  0  0  0  0  0  0  0  0  0
    0.7237    8.7439    6.3481 O   0  0  0  0  0  0  0  0  0  0  0  0
    1.7311    6.6331    6.2507 C   0  0  0  0  0  0  0  0  0  0  0  0
    2.8864    6.4919    5.5155 C   0  0  0  0  0  0  0  0  0  0  0  0
    3.1946    5.2996    4.8718 C   0  0  0  0  0  0  0  0  0  0  0  0
    2.3558    4.2149    4.9442 C   0  0  0  0  0  0  0  0  0  0  0  0
    1.1985    4.3432    5.6743 C   0  0  0  0  0  0  0  0  0  0  0  0
    0.8942    5.5272    6.3131 C   0  0  0  0  0  0  0  0  0  0  0  0
    2.7054    3.0055    4.2695 N   0  0  0  0  0  4  0  0  0  0  0  0
    1.9442    2.0219    4.2783 O   0  0  0  0  0  0  0  0  0  0  0  0
    3.8871    2.9082    3.6003 O   0  0  0  0  0  1  0  0  0  0  0  0
    3.8044    7.6220    5.3762 C   0  0  0  0  0  0  0  0  0  0  0  0
    4.7894    7.7013    6.3263 F   0  0  0  0  0  0  0  0  0  0  0  0
    3.1114    8.8393    5.2715 F   0  0  0  0  0  0  0  0  0  0  0  0
    4.4906    7.5354    4.1549 F   0  0  0  0  0  0  0  0  0  0  0  0
  1  2  1  0
  2  3  1  0
  3  4  2  0
  4  5  1  0
  5  6  2  0
  3  7  1  0
  7  8  2  0
  8  9  1  0
  9 10  2  0
 10 11  1  0
 11 12  2  0
 12 13  1  0
 13 14  2  0
 14 15  1  0
 15 16  2  0
 10 17  1  0
 17 18  1  0
 18 19  1  0
 19 20  1  0
 20 21  1  0
 21 22  1  0
 20 23  1  0
 23 24  1  0
 23 25  1  0
 25 26  2  0
 25 27  1  0
 27 28  2  0
 28 29  1  0
 29 30  2  0
 30 31  1  0
 31 32  2  0
 30 33  1  0
 33 34  2  0
 33 35  1  0
 28 36  1  0
 36 37  1  0
 36 38  1  0
 36 39  1  0
  6  2  1  0
 16  7  1  0
 16 11  1  0
 22 17  1  0
 32 27  1  0
M  CHG  2  33   1  35  -1
M  END
$$$$
