
     RDKit          3D

 39 43  0  0  0  0  0  0  0  0999 V2000
    0.7137    7.8227   16.7382 C   0  0  0  0  0  0  0  0  0  0  0  0
    1.1292    6.4183   16.8057 N   0  0  0  0  0  0  0  0  0  0  0  0
    1.5634    5.5898   15.8542 C   0  0  0  0  0  0  0  0  0  0  0  0
    1.8613    4.3995   16.4814 C   0  0  0  0  0  0  0  0  0  0  0  0
    1.5914    4.5438   17.8243 C   0  0  0  0  0  0  0  0  0  0  0  0
    1.1437    5.7974   17.9816 N   0  0  0  0  0  0  0  0  0  0  0  0
    1.7537    5.9038   14.4575 C   0  0  0  0  0  0  0  0  0  0  0  0
    0.8002    5.6711   13.5345 N   0  0  0  0  0  0  0  0  0  0  0  0
    0.9337    5.9525   12.2616 N   0  0  0  0  0  0  0  0  0  0  0  0
    2.0772    6.5154   11.7720 C   0  0  0  0  0  0  0  0  0  0  0  0
    3.0779    6.7731   12.6674 C   0  0  0  0  0  0  0  0  0  0  0  0
    4.2557    7.3425   12.2497 C   0  0  0  0  0  0  0  0  0  0  0  0
    5.2578    7.6132   13.1430 C   0  0  0  0  0  0  0  0  0  0  0  0
    5.1043    7.3204   14.4727 C   0  0  0  0  0  0  0  0  0  0  0  0
    3.9407    6.7443   14.9492 C   0  0  0  0  0  0  0  0  0  0  0  0
    2.9387    6.4736   14.0369 C   0  0  0  0  0  0  0  0  0  0  0  0
    2.1781    6.8530   10.4029 N   0  0  0  0  0  0  0  0  0  0  0  0
    1.9261    5.8754    9.3632 C   0  0  0  0  0  0  0  0  0  0  0  0
    2.4239    6.3812    8.0196 C   0  0  0  0  0  0  0  0  0  0  0  0
    1.8303    7.7203    7.6434 C   0  0  0  0  0  0  0  0  0  0  0  0
    1.6217    8.5830    8.8330 C   0  0  0  0  0  0  0  0  0  0  0  0
    2.5570    8.1715    9.9396 C   0  0  0  0  0  0  0  0  0  0  0  0
    0.6840    7.5646    6.7694 N   0  0  0  0  0  0  0  0  0  0  0  0
   -0.6197    7.8960    7.2947 C   0  0  0  0  0  0  0  0  0  0  0  0
    0.7583    7.0945    5.4358 C   0  0  0  0  0  0  0  0  0  0  0  0
   -0.3487    6.8701    4.8445 O   0  0  0  0  0  0  0  0  0  0  0  0
    1.9886    6.8542    4.7156 C   0  0  0  0  0  0  0  0  0  0  0  0
    2.6187    5.6333    4.6289 C   0  0  0  0  0  0  0  0  0  0  0  0
    3.7861    5.4709    3.8928 C   0  0  0  0  0  0  0  0  0  0  0  0
    4.3570    6.5251    3.2233 C   0  0  0  0  0  0  0  0  0  0  0  0
    3.7382    7.7498    3.3027 C   0  0  0  0  0  0  0  0  0  0  0  0
    2.5794    7.9092    4.0333 C   0  0  0  0  0  0  0  0  0  0  0  0
    5.5574    6.3207    2.4766 N   0  0  0  0  0  4  0  0  0  0  0  0
    6.1517    7.2737    1.9423 O   0  0  0  0  0  0  0  0  0  0  0  0
    6.0752    5.0694    2.3361 O   0  0  0  0  0  1  0  0  0  0  0  0
    2.0750    4.4800    5.3454 C   0  0  0  0  0  0  0  0  0  0  0  0
    1.1648    4.7724    6.3278 F   0  0  0  0  0  0  0  0  0  0  0  0
    3.0962    3.6521    5.8401 F   0  0  0  0  0  0  0  0  0  0  0  0
    1.3847    3.6433    4.4546 F   0  0  0  0  0  0  0  0  0  0  0  0
  1  2  1  0
  2  3  1  0
  3  4  2  0
  4  5  1  0
  5  6  2  0
  3  7  1  0
  7  8  2  0
  8  9  1  0
  9 10  2  0
 10 11  1  0
 11 12  2  0
 12 13  1  0
 13 14  2  0
 14 15  1  0
 15 16  2  0
 10 17  1  0
 17 18  1  0
 18 19  1  0
 19 20  1  0
 20 21  1  0
 21 22  1  0
 20 23  1  0
 23 24  1  0
 23 25  1  0
 25 26  2  0
 25 27  1  0
 27 28  2  0
 28 29  1  0
 29 30  2  0
 30 31  1  0
 31 32  2  0
 30 33  1  0
 33 34  2  0
 33 35  1  0
 28 36  1  0
 36 37  1  0
 36 38  1  0
 36 39  1  0
  6  2  1  0
 16  7  1  0
 16 11  1  0
 22 17  1  0
 32 27  1  0
M  CHG  2  33   1  35  -1
M  END
$$$$
