
     RDKit          3D

 39 43  0  0  0  0  0  0  0  0999 V2000
   14.7858    1.4563   38.7680 C   0  0  0  0  0  0  0  0  0  0  0  0
   15.1970    1.5149   40.1741 N   0  0  0  0  0  0  0  0  0  0  0  0
   14.8290    0.7764   41.2226 C   0  0  0  0  0  0  0  0  0  0  0  0
   15.5648    1.2307   42.2956 C   0  0  0  0  0  0  0  0  0  0  0  0
   16.3741    2.2552   41.8568 C   0  0  0  0  0  0  0  0  0  0  0  0
   16.1176    2.3984   40.5490 N   0  0  0  0  0  0  0  0  0  0  0  0
   13.8992   -0.3286   41.2162 C   0  0  0  0  0  0  0  0  0  0  0  0
   12.8518   -0.3787   40.3704 N   0  0  0  0  0  0  0  0  0  0  0  0
   11.9948   -1.3692   40.3291 N   0  0  0  0  0  0  0  0  0  0  0  0
   12.1085   -2.4454   41.1616 C   0  0  0  0  0  0  0  0  0  0  0  0
   13.1556   -2.4454   42.0409 C   0  0  0  0  0  0  0  0  0  0  0  0
   13.3374   -3.4960   42.9063 C   0  0  0  0  0  0  0  0  0  0  0  0
   14.3903   -3.5073   43.7819 C   0  0  0  0  0  0  0  0  0  0  0  0
   15.2837   -2.4689   43.8116 C   0  0  0  0  0  0  0  0  0  0  0  0
   15.1486   -1.3839   42.9646 C   0  0  0  0  0  0  0  0  0  0  0  0
   14.0802   -1.3835   42.0881 C   0  0  0  0  0  0  0  0  0  0  0  0
   11.1986   -3.5230   41.0649 N   0  0  0  0  0  0  0  0  0  0  0  0
   10.8985   -4.1465   39.7915 C   0  0  0  0  0  0  0  0  0  0  0  0
    9.6656   -5.0276   39.9032 C   0  0  0  0  0  0  0  0  0  0  0  0
    9.7912   -6.0729   40.9889 C   0  0  0  0  0  0  0  0  0  0  0  0
   10.5621   -5.5676   42.1521 C   0  0  0  0  0  0  0  0  0  0  0  0
   10.4897   -4.0640   42.2057 C   0  0  0  0  0  0  0  0  0  0  0  0
   10.2266   -7.3464   40.4498 N   0  0  0  0  0  0  0  0  0  0  0  0
   11.4648   -7.3812   39.7075 C   0  0  0  0  0  0  0  0  0  0  0  0
    9.5080   -8.5582   40.5921 C   0  0  0  0  0  0  0  0  0  0  0  0
    9.8452   -9.5183   39.8242 O   0  0  0  0  0  0  0  0  0  0  0  0
    8.4330   -8.7712   41.5350 C   0  0  0  0  0  0  0  0  0  0  0  0
    7.0965   -8.7944   41.2055 C   0  0  0  0  0  0  0  0  0  0  0  0
    6.1182   -9.0342   42.1627 C   0  0  0  0  0  0  0  0  0  0  0  0
    6.4484   -9.2565   43.4768 C   0  0  0  0  0  0  0  0  0  0  0  0
    7.7794   -9.2349   43.8191 C   0  0  0  0  0  0  0  0  0  0  0  0
    8.7492   -8.9973   42.8678 C   0  0  0  0  0  0  0  0  0  0  0  0
    5.4157   -9.4996   44.4332 N   0  0  0  0  0  4  0  0  0  0  0  0
    5.6861   -9.7462   45.6219 O   0  0  0  0  0  0  0  0  0  0  0  0
    4.1078   -9.4652   44.0567 O   0  0  0  0  0  1  0  0  0  0  0  0
    6.6810   -8.5342   39.8275 C   0  0  0  0  0  0  0  0  0  0  0  0
    7.3764   -7.5468   39.1791 F   0  0  0  0  0  0  0  0  0  0  0  0
    5.2969   -8.3113   39.7398 F   0  0  0  0  0  0  0  0  0  0  0  0
    6.8731   -9.6822   39.0433 F   0  0  0  0  0  0  0  0  0  0  0  0
  1  2  1  0
  2  3  1  0
  3  4  2  0
  4  5  1  0
  5  6  2  0
  3  7  1  0
  7  8  2  0
  8  9  1  0
  9 10  2  0
 10 11  1  0
 11 12  2  0
 12 13  1  0
 13 14  2  0
 14 15  1  0
 15 16  2  0
 10 17  1  0
 17 18  1  0
 18 19  1  0
 19 20  1  0
 20 21  1  0
 21 22  1  0
 20 23  1  0
 23 24  1  0
 23 25  1  0
 25 26  2  0
 25 27  1  0
 27 28  2  0
 28 29  1  0
 29 30  2  0
 30 31  1  0
 31 32  2  0
 30 33  1  0
 33 34  2  0
 33 35  1  0
 28 36  1  0
 36 37  1  0
 36 38  1  0
 36 39  1  0
  6  2  1  0
 16  7  1  0
 16 11  1  0
 22 17  1  0
 32 27  1  0
M  CHG  2  33   1  35  -1
M  END
$$$$
