
     RDKit          3D

 39 43  0  0  0  0  0  0  0  0999 V2000
   -0.2873    7.6327   18.5929 C   0  0  0  0  0  0  0  0  0  0  0  0
    1.1220    7.3541   18.8857 N   0  0  0  0  0  0  0  0  0  0  0  0
    2.1585    7.1478   18.0712 C   0  0  0  0  0  0  0  0  0  0  0  0
    3.2618    6.9827   18.8802 C   0  0  0  0  0  0  0  0  0  0  0  0
    2.8526    7.0945   20.1906 C   0  0  0  0  0  0  0  0  0  0  0  0
    1.5323    7.3219   20.1503 N   0  0  0  0  0  0  0  0  0  0  0  0
    2.1389    7.1686   16.6274 C   0  0  0  0  0  0  0  0  0  0  0  0
    2.8052    8.0979   15.9150 N   0  0  0  0  0  0  0  0  0  0  0  0
    2.8185    8.1413   14.6053 N   0  0  0  0  0  0  0  0  0  0  0  0
    2.1412    7.2238   13.8547 C   0  0  0  0  0  0  0  0  0  0  0  0
    1.4477    6.2570   14.5285 C   0  0  0  0  0  0  0  0  0  0  0  0
    0.7461    5.2972   13.8412 C   0  0  0  0  0  0  0  0  0  0  0  0
    0.0584    4.3197   14.5097 C   0  0  0  0  0  0  0  0  0  0  0  0
    0.0568    4.2807   15.8794 C   0  0  0  0  0  0  0  0  0  0  0  0
    0.7440    5.2228   16.6231 C   0  0  0  0  0  0  0  0  0  0  0  0
    1.4314    6.2054   15.9363 C   0  0  0  0  0  0  0  0  0  0  0  0
    2.2102    7.2641   12.4433 N   0  0  0  0  0  0  0  0  0  0  0  0
    1.6472    6.2058   11.6288 C   0  0  0  0  0  0  0  0  0  0  0  0
    2.1427    6.3106   10.1961 C   0  0  0  0  0  0  0  0  0  0  0  0
    1.8612    7.6619    9.5783 C   0  0  0  0  0  0  0  0  0  0  0  0
    1.9630    8.7551   10.5770 C   0  0  0  0  0  0  0  0  0  0  0  0
    2.8574    8.3344   11.7136 C   0  0  0  0  0  0  0  0  0  0  0  0
    0.6448    7.6405    8.7896 N   0  0  0  0  0  0  0  0  0  0  0  0
   -0.5689    8.1287    9.4011 C   0  0  0  0  0  0  0  0  0  0  0  0
    0.5666    7.1580    7.4607 C   0  0  0  0  0  0  0  0  0  0  0  0
   -0.5998    6.9156    7.0065 O   0  0  0  0  0  0  0  0  0  0  0  0
    1.7059    6.9243    6.6019 C   0  0  0  0  0  0  0  0  0  0  0  0
    2.0639    5.6958    6.0942 C   0  0  0  0  0  0  0  0  0  0  0  0
    3.1578    5.5516    5.2494 C   0  0  0  0  0  0  0  0  0  0  0  0
    3.9253    6.6317    4.8892 C   0  0  0  0  0  0  0  0  0  0  0  0
    3.5790    7.8638    5.3902 C   0  0  0  0  0  0  0  0  0  0  0  0
    2.4927    8.0054    6.2282 C   0  0  0  0  0  0  0  0  0  0  0  0
    5.0423    6.4454    4.0188 N   0  0  0  0  0  4  0  0  0  0  0  0
    5.2993    5.3296    3.5331 O   0  0  0  0  0  0  0  0  0  0  0  0
    5.8510    7.4944    3.7036 O   0  0  0  0  0  1  0  0  0  0  0  0
    1.3030    4.5035    6.4665 C   0  0  0  0  0  0  0  0  0  0  0  0
    1.8023    3.7936    7.5275 F   0  0  0  0  0  0  0  0  0  0  0  0
    1.0861    3.6644    5.3611 F   0  0  0  0  0  0  0  0  0  0  0  0
    0.0042    4.8653    6.8566 F   0  0  0  0  0  0  0  0  0  0  0  0
  1  2  1  0
  2  3  1  0
  3  4  2  0
  4  5  1  0
  5  6  2  0
  3  7  1  0
  7  8  2  0
  8  9  1  0
  9 10  2  0
 10 11  1  0
 11 12  2  0
 12 13  1  0
 13 14  2  0
 14 15  1  0
 15 16  2  0
 10 17  1  0
 17 18  1  0
 18 19  1  0
 19 20  1  0
 20 21  1  0
 21 22  1  0
 20 23  1  0
 23 24  1  0
 23 25  1  0
 25 26  2  0
 25 27  1  0
 27 28  2  0
 28 29  1  0
 29 30  2  0
 30 31  1  0
 31 32  2  0
 30 33  1  0
 33 34  2  0
 33 35  1  0
 28 36  1  0
 36 37  1  0
 36 38  1  0
 36 39  1  0
  6  2  1  0
 16  7  1  0
 16 11  1  0
 22 17  1  0
 32 27  1  0
M  CHG  2  33   1  35  -1
M  END
$$$$
