
     RDKit          3D

 39 43  0  0  0  0  0  0  0  0999 V2000
    0.1699    7.5997   19.3665 C   0  0  0  0  0  0  0  0  0  0  0  0
    1.0935    6.4891   19.6177 N   0  0  0  0  0  0  0  0  0  0  0  0
    1.8225    5.7530   18.7770 C   0  0  0  0  0  0  0  0  0  0  0  0
    2.5497    4.8791   19.5558 C   0  0  0  0  0  0  0  0  0  0  0  0
    2.2320    5.1151   20.8750 C   0  0  0  0  0  0  0  0  0  0  0  0
    1.3346    6.1107   20.8696 N   0  0  0  0  0  0  0  0  0  0  0  0
    1.8908    5.8958   17.3415 C   0  0  0  0  0  0  0  0  0  0  0  0
    0.7871    5.9037   16.5690 N   0  0  0  0  0  0  0  0  0  0  0  0
    0.8102    6.0416   15.2660 N   0  0  0  0  0  0  0  0  0  0  0  0
    1.9845    6.1910   14.5857 C   0  0  0  0  0  0  0  0  0  0  0  0
    3.1362    6.1903   15.3226 C   0  0  0  0  0  0  0  0  0  0  0  0
    4.3553    6.3403   14.7084 C   0  0  0  0  0  0  0  0  0  0  0  0
    5.5118    6.3515   15.4417 C   0  0  0  0  0  0  0  0  0  0  0  0
    5.4748    6.2128   16.8044 C   0  0  0  0  0  0  0  0  0  0  0  0
    4.2757    6.0563   17.4756 C   0  0  0  0  0  0  0  0  0  0  0  0
    3.1164    6.0437   16.7236 C   0  0  0  0  0  0  0  0  0  0  0  0
    1.9794    6.3855   13.1854 N   0  0  0  0  0  0  0  0  0  0  0  0
    1.3102    5.4573   12.2962 C   0  0  0  0  0  0  0  0  0  0  0  0
    1.7329    5.6951   10.8561 C   0  0  0  0  0  0  0  0  0  0  0  0
    1.5007    7.1204   10.4071 C   0  0  0  0  0  0  0  0  0  0  0  0
    1.7221    8.0876   11.5109 C   0  0  0  0  0  0  0  0  0  0  0  0
    2.6496    7.4943   12.5389 C   0  0  0  0  0  0  0  0  0  0  0  0
    0.2443    7.2533    9.6957 N   0  0  0  0  0  0  0  0  0  0  0  0
   -0.9706    7.3281   10.4727 C   0  0  0  0  0  0  0  0  0  0  0  0
    0.1298    7.3006    8.2853 C   0  0  0  0  0  0  0  0  0  0  0  0
   -0.9985    7.6607    7.8134 O   0  0  0  0  0  0  0  0  0  0  0  0
    1.1920    6.9696    7.3621 C   0  0  0  0  0  0  0  0  0  0  0  0
    2.0133    7.8905    6.7518 C   0  0  0  0  0  0  0  0  0  0  0  0
    3.0347    7.4959    5.8962 C   0  0  0  0  0  0  0  0  0  0  0  0
    3.2631    6.1692    5.6258 C   0  0  0  0  0  0  0  0  0  0  0  0
    2.4493    5.2396    6.2281 C   0  0  0  0  0  0  0  0  0  0  0  0
    1.4363    5.6329    7.0774 C   0  0  0  0  0  0  0  0  0  0  0  0
    4.3222    5.8008    4.7411 N   0  0  0  0  0  4  0  0  0  0  0  0
    5.0087    6.6642    4.1664 O   0  0  0  0  0  0  0  0  0  0  0  0
    4.6004    4.4882    4.5103 O   0  0  0  0  0  1  0  0  0  0  0  0
    1.7996    9.3198    6.9768 C   0  0  0  0  0  0  0  0  0  0  0  0
    2.7000   10.1534    6.3658 F   0  0  0  0  0  0  0  0  0  0  0  0
    1.6931    9.6159    8.3458 F   0  0  0  0  0  0  0  0  0  0  0  0
    0.5505    9.7047    6.4655 F   0  0  0  0  0  0  0  0  0  0  0  0
  1  2  1  0
  2  3  1  0
  3  4  2  0
  4  5  1  0
  5  6  2  0
  3  7  1  0
  7  8  2  0
  8  9  1  0
  9 10  2  0
 10 11  1  0
 11 12  2  0
 12 13  1  0
 13 14  2  0
 14 15  1  0
 15 16  2  0
 10 17  1  0
 17 18  1  0
 18 19  1  0
 19 20  1  0
 20 21  1  0
 21 22  1  0
 20 23  1  0
 23 24  1  0
 23 25  1  0
 25 26  2  0
 25 27  1  0
 27 28  2  0
 28 29  1  0
 29 30  2  0
 30 31  1  0
 31 32  2  0
 30 33  1  0
 33 34  2  0
 33 35  1  0
 28 36  1  0
 36 37  1  0
 36 38  1  0
 36 39  1  0
  6  2  1  0
 16  7  1  0
 16 11  1  0
 22 17  1  0
 32 27  1  0
M  CHG  2  33   1  35  -1
M  END
$$$$
