
     RDKit          3D

 30 30  0  0  0  0  0  0  0  0999 V2000
    1.3954   -4.6073    9.8187 C   0  0  0  0  0  0  0  0  0  0  0  0
    2.2845   -5.3663   10.7481 C   0  0  0  0  0  0  0  0  0  0  0  0
    2.8696   -6.4798   10.3784 C   0  0  0  0  0  0  0  0  0  0  0  0
    3.7821   -7.2429   11.3445 C   0  0  0  0  0  0  0  0  0  0  0  0
    3.7584   -6.7239   12.7218 C   0  0  0  0  0  0  0  0  0  0  0  0
    3.8111   -5.2020   12.6538 C   0  0  0  0  0  0  0  0  0  0  0  0
    2.4609   -4.7902   12.1355 C   0  0  0  0  0  0  0  0  0  0  0  0
    3.1862   -8.6561   11.3750 C   0  0  0  0  0  0  0  0  0  0  0  0
    5.1558   -7.3380   10.7446 C   0  0  0  0  0  0  0  0  0  0  0  0
    2.7049   -7.0990    9.0891 C   0  0  0  0  0  0  0  0  0  0  0  0
    2.4148   -6.7180    7.9085 C   0  0  0  0  0  0  0  0  0  0  0  0
    2.2937   -7.7218    6.8351 C   0  0  0  0  0  0  0  0  0  0  0  0
    1.1773   -7.9242    6.1259 C   0  0  0  0  0  0  0  0  0  0  0  0
    0.6119   -6.9748    5.3231 C   0  0  0  0  0  0  0  0  0  0  0  0
    0.0939   -6.1046    4.5860 C   0  0  0  0  0  0  0  0  0  0  0  0
   -0.5079   -4.7811    4.8537 C   0  0  0  0  0  0  0  0  0  0  0  0
    0.2769   -3.7415    4.9434 C   0  0  0  0  0  0  0  0  0  0  0  0
    0.6930   -2.7775    3.9214 C   0  0  0  0  0  0  0  0  0  0  0  0
    0.3521   -1.4283    4.0614 N   0  0  0  0  0  0  0  0  0  0  0  0
   -0.6028   -0.8854    3.1734 C   0  0  0  0  0  0  0  0  0  0  0  0
   -0.1905   -0.9560    1.7021 C   0  0  0  0  0  0  0  0  0  0  0  0
    0.4845    0.3430    1.2853 C   0  0  0  0  0  0  0  0  0  0  0  0
    1.1908    0.1726   -0.0415 C   0  0  0  0  0  0  0  0  0  0  0  0
    1.3258    1.4483   -0.8144 C   0  0  0  0  0  0  0  0  0  0  0  0
    0.0319    1.8494   -1.4586 C   0  0  0  0  0  0  0  0  0  0  0  0
   -0.6610    2.8211   -1.1006 O   0  0  0  0  0  0  0  0  0  0  0  0
   -0.4178    1.0773   -2.5271 O   0  0  0  0  0  0  0  0  0  0  0  0
    1.8212    2.5648   -0.0400 N   0  0  0  0  0  0  0  0  0  0  0  0
   -1.9671   -4.7867    5.1109 C   0  0  0  0  0  0  0  0  0  0  0  0
    3.4639   -8.5912    6.5629 C   0  0  0  0  0  0  0  0  0  0  0  0
  1  2  1  0
  2  3  2  0
  3  4  1  0
  4  5  1  0
  5  6  1  0
  6  7  1  0
  4  8  1  0
  4  9  1  0
  3 10  1  0
 10 11  2  3
 11 12  1  0
 12 13  2  3
 13 14  1  0
 14 15  2  3
 15 16  1  0
 16 17  2  3
 17 18  1  0
 18 19  1  0
 19 20  1  0
 20 21  1  0
 21 22  1  0
 22 23  1  0
 23 24  1  0
 24 25  1  0
 25 26  2  0
 25 27  1  0
 24 28  1  0
 16 29  1  0
 12 30  1  0
  7  2  1  0
M  END
$$$$
