
     RDKit          3D

 30 30  0  0  0  0  0  0  0  0999 V2000
   -1.7348   -8.9689   10.1160 C   0  0  0  0  0  0  0  0  0  0  0  0
   -2.4612   -9.1998    8.8317 C   0  0  0  0  0  0  0  0  0  0  0  0
   -2.0848   -8.6181    7.7186 C   0  0  0  0  0  0  0  0  0  0  0  0
   -2.8401   -8.8704    6.4093 C   0  0  0  0  0  0  0  0  0  0  0  0
   -4.0895   -9.6299    6.5790 C   0  0  0  0  0  0  0  0  0  0  0  0
   -3.8164  -10.7785    7.5433 C   0  0  0  0  0  0  0  0  0  0  0  0
   -3.6561  -10.1255    8.8883 C   0  0  0  0  0  0  0  0  0  0  0  0
   -3.2183   -7.4646    5.9257 C   0  0  0  0  0  0  0  0  0  0  0  0
   -1.8910   -9.4601    5.4054 C   0  0  0  0  0  0  0  0  0  0  0  0
   -0.9854   -7.6948    7.6118 C   0  0  0  0  0  0  0  0  0  0  0  0
   -0.7251   -6.5137    8.0124 C   0  0  0  0  0  0  0  0  0  0  0  0
    0.5023   -5.8456    7.5416 C   0  0  0  0  0  0  0  0  0  0  0  0
    1.1895   -4.9532    8.2637 C   0  0  0  0  0  0  0  0  0  0  0  0
    1.0686   -3.6020    8.1053 C   0  0  0  0  0  0  0  0  0  0  0  0
    0.9572   -2.3628    7.9609 C   0  0  0  0  0  0  0  0  0  0  0  0
    1.6900   -1.2094    8.5249 C   0  0  0  0  0  0  0  0  0  0  0  0
    1.4364   -0.0163    8.0592 C   0  0  0  0  0  0  0  0  0  0  0  0
    0.6256    0.4005    6.9122 C   0  0  0  0  0  0  0  0  0  0  0  0
   -0.6351    0.9679    7.1240 N   0  0  0  0  0  0  0  0  0  0  0  0
   -0.7885    1.8716    8.1986 C   0  0  0  0  0  0  0  0  0  0  0  0
   -0.2477    3.2731    7.9109 C   0  0  0  0  0  0  0  0  0  0  0  0
   -0.4008    4.1554    9.1417 C   0  0  0  0  0  0  0  0  0  0  0  0
   -0.8529    3.3356   10.3301 C   0  0  0  0  0  0  0  0  0  0  0  0
   -0.2538    3.7838   11.6274 C   0  0  0  0  0  0  0  0  0  0  0  0
   -0.5823    5.2162   11.9279 C   0  0  0  0  0  0  0  0  0  0  0  0
   -0.1367    6.1892   11.2899 O   0  0  0  0  0  0  0  0  0  0  0  0
   -1.4432    5.4656   12.9941 O   0  0  0  0  0  0  0  0  0  0  0  0
   -0.6276    2.9758   12.7672 N   0  0  0  0  0  0  0  0  0  0  0  0
    2.7457   -1.5465    9.5085 C   0  0  0  0  0  0  0  0  0  0  0  0
    0.9710   -6.1444    6.1666 C   0  0  0  0  0  0  0  0  0  0  0  0
  1  2  1  0
  2  3  2  0
  3  4  1  0
  4  5  1  0
  5  6  1  0
  6  7  1  0
  4  8  1  0
  4  9  1  0
  3 10  1  0
 10 11  2  3
 11 12  1  0
 12 13  2  3
 13 14  1  0
 14 15  2  3
 15 16  1  0
 16 17  2  3
 17 18  1  0
 18 19  1  0
 19 20  1  0
 20 21  1  0
 21 22  1  0
 22 23  1  0
 23 24  1  0
 24 25  1  0
 25 26  2  0
 25 27  1  0
 24 28  1  0
 16 29  1  0
 12 30  1  0
  7  2  1  0
M  END
$$$$
