
     RDKit          3D

 30 30  0  0  0  0  0  0  0  0999 V2000
    0.5271    0.9132    9.7097 C   0  0  0  0  0  0  0  0  0  0  0  0
   -0.3260    0.7524   10.9249 C   0  0  0  0  0  0  0  0  0  0  0  0
   -0.9083   -0.3881   11.2060 C   0  0  0  0  0  0  0  0  0  0  0  0
   -1.7769   -0.5354   12.4599 C   0  0  0  0  0  0  0  0  0  0  0  0
   -2.0373    0.7347   13.1570 C   0  0  0  0  0  0  0  0  0  0  0  0
   -0.7311    1.5185   13.2136 C   0  0  0  0  0  0  0  0  0  0  0  0
   -0.4913    1.9745   11.8009 C   0  0  0  0  0  0  0  0  0  0  0  0
   -3.1184   -1.0476   11.9204 C   0  0  0  0  0  0  0  0  0  0  0  0
   -1.1940   -1.6099   13.3328 C   0  0  0  0  0  0  0  0  0  0  0  0
   -0.8244   -1.5703   10.3889 C   0  0  0  0  0  0  0  0  0  0  0  0
    0.0800   -2.1781    9.7287 C   0  0  0  0  0  0  0  0  0  0  0  0
   -0.3002   -3.2897    8.8376 C   0  0  0  0  0  0  0  0  0  0  0  0
   -0.4045   -3.1777    7.5083 C   0  0  0  0  0  0  0  0  0  0  0  0
   -0.1331   -4.1986    6.6425 C   0  0  0  0  0  0  0  0  0  0  0  0
    0.1160   -5.1341    5.8476 C   0  0  0  0  0  0  0  0  0  0  0  0
    0.1185   -5.2338    4.3727 C   0  0  0  0  0  0  0  0  0  0  0  0
    1.2481   -5.0822    3.7355 C   0  0  0  0  0  0  0  0  0  0  0  0
    1.5540   -5.2026    2.3077 C   0  0  0  0  0  0  0  0  0  0  0  0
    0.7191   -4.5924    1.3660 N   0  0  0  0  0  0  0  0  0  0  0  0
    1.0137   -4.7726   -0.0036 C   0  0  0  0  0  0  0  0  0  0  0  0
    1.4660   -3.4952   -0.7129 C   0  0  0  0  0  0  0  0  0  0  0  0
    1.1652   -2.2810    0.1544 C   0  0  0  0  0  0  0  0  0  0  0  0
    1.5780   -1.0085   -0.5518 C   0  0  0  0  0  0  0  0  0  0  0  0
    0.8123    0.1983   -0.1040 C   0  0  0  0  0  0  0  0  0  0  0  0
    0.9168    1.3228   -1.0910 C   0  0  0  0  0  0  0  0  0  0  0  0
    0.0135    2.1524   -1.3111 O   0  0  0  0  0  0  0  0  0  0  0  0
    2.1066    1.4390   -1.8058 O   0  0  0  0  0  0  0  0  0  0  0  0
   -0.5867   -0.0499    0.1662 N   0  0  0  0  0  0  0  0  0  0  0  0
   -1.2142   -5.3882    3.7438 C   0  0  0  0  0  0  0  0  0  0  0  0
   -0.6359   -4.5937    9.4592 C   0  0  0  0  0  0  0  0  0  0  0  0
  1  2  1  0
  2  3  2  0
  3  4  1  0
  4  5  1  0
  5  6  1  0
  6  7  1  0
  4  8  1  0
  4  9  1  0
  3 10  1  0
 10 11  2  3
 11 12  1  0
 12 13  2  3
 13 14  1  0
 14 15  2  3
 15 16  1  0
 16 17  2  3
 17 18  1  0
 18 19  1  0
 19 20  1  0
 20 21  1  0
 21 22  1  0
 22 23  1  0
 23 24  1  0
 24 25  1  0
 25 26  2  0
 25 27  1  0
 24 28  1  0
 16 29  1  0
 12 30  1  0
  7  2  1  0
M  END
$$$$
