
     RDKit          3D

 30 30  0  0  0  0  0  0  0  0999 V2000
   -1.5906   -2.7643   10.6930 C   0  0  0  0  0  0  0  0  0  0  0  0
   -0.6004   -3.4399   11.5838 C   0  0  0  0  0  0  0  0  0  0  0  0
    0.1044   -4.4650   11.1699 C   0  0  0  0  0  0  0  0  0  0  0  0
    1.1190   -5.1430   12.0969 C   0  0  0  0  0  0  0  0  0  0  0  0
    1.0613   -4.6711   13.4901 C   0  0  0  0  0  0  0  0  0  0  0  0
    0.9332   -3.1523   13.4691 C   0  0  0  0  0  0  0  0  0  0  0  0
   -0.4660   -2.8880   12.9857 C   0  0  0  0  0  0  0  0  0  0  0  0
    0.6942   -6.6170   12.0925 C   0  0  0  0  0  0  0  0  0  0  0  0
    2.4824   -5.0573   11.4726 C   0  0  0  0  0  0  0  0  0  0  0  0
   -0.0115   -5.0612    9.8646 C   0  0  0  0  0  0  0  0  0  0  0  0
   -0.1017   -6.2396    9.3889 C   0  0  0  0  0  0  0  0  0  0  0  0
   -0.2678   -6.4207    7.9350 C   0  0  0  0  0  0  0  0  0  0  0  0
    0.0828   -5.5050    7.0246 C   0  0  0  0  0  0  0  0  0  0  0  0
    0.8690   -5.7809    5.9424 C   0  0  0  0  0  0  0  0  0  0  0  0
    1.5893   -6.0342    4.9493 C   0  0  0  0  0  0  0  0  0  0  0  0
    1.3232   -6.0938    3.4964 C   0  0  0  0  0  0  0  0  0  0  0  0
    1.0711   -4.9827    2.8586 C   0  0  0  0  0  0  0  0  0  0  0  0
    1.7043   -4.4089    1.6683 C   0  0  0  0  0  0  0  0  0  0  0  0
    0.9386   -3.6602    0.7686 N   0  0  0  0  0  0  0  0  0  0  0  0
   -0.0445   -2.7909    1.2908 C   0  0  0  0  0  0  0  0  0  0  0  0
    0.3845   -1.3233    1.3299 C   0  0  0  0  0  0  0  0  0  0  0  0
    0.3688   -0.7364   -0.0745 C   0  0  0  0  0  0  0  0  0  0  0  0
    0.5108    0.7688   -0.0227 C   0  0  0  0  0  0  0  0  0  0  0  0
    0.5116    1.4154   -1.3736 C   0  0  0  0  0  0  0  0  0  0  0  0
    1.2025    2.7466   -1.3541 C   0  0  0  0  0  0  0  0  0  0  0  0
    2.1440    3.0620   -2.1068 O   0  0  0  0  0  0  0  0  0  0  0  0
    0.7556    3.6865   -0.4284 O   0  0  0  0  0  0  0  0  0  0  0  0
    1.0965    0.6073   -2.4208 N   0  0  0  0  0  0  0  0  0  0  0  0
    1.2574   -7.4562    2.9176 C   0  0  0  0  0  0  0  0  0  0  0  0
   -0.9086   -7.6711    7.4602 C   0  0  0  0  0  0  0  0  0  0  0  0
  1  2  1  0
  2  3  2  0
  3  4  1  0
  4  5  1  0
  5  6  1  0
  6  7  1  0
  4  8  1  0
  4  9  1  0
  3 10  1  0
 10 11  2  3
 11 12  1  0
 12 13  2  3
 13 14  1  0
 14 15  2  3
 15 16  1  0
 16 17  2  3
 17 18  1  0
 18 19  1  0
 19 20  1  0
 20 21  1  0
 21 22  1  0
 22 23  1  0
 23 24  1  0
 24 25  1  0
 25 26  2  0
 25 27  1  0
 24 28  1  0
 16 29  1  0
 12 30  1  0
  7  2  1  0
M  END
$$$$
