
     RDKit          3D

 30 30  0  0  0  0  0  0  0  0999 V2000
    4.2898   -5.1938   12.2405 C   0  0  0  0  0  0  0  0  0  0  0  0
    3.6919   -3.8285   12.1470 C   0  0  0  0  0  0  0  0  0  0  0  0
    2.6588   -3.5852   11.3773 C   0  0  0  0  0  0  0  0  0  0  0  0
    2.0562   -2.1785   11.2973 C   0  0  0  0  0  0  0  0  0  0  0  0
    2.8548   -1.1484   11.9813 C   0  0  0  0  0  0  0  0  0  0  0  0
    3.3090   -1.7158   13.3213 C   0  0  0  0  0  0  0  0  0  0  0  0
    4.3484   -2.7453   12.9738 C   0  0  0  0  0  0  0  0  0  0  0  0
    2.0747   -1.8547    9.7980 C   0  0  0  0  0  0  0  0  0  0  0  0
    0.6206   -2.2380   11.7352 C   0  0  0  0  0  0  0  0  0  0  0  0
    2.0204   -4.5630   10.5353 C   0  0  0  0  0  0  0  0  0  0  0  0
    1.9488   -4.8053    9.2866 C   0  0  0  0  0  0  0  0  0  0  0  0
    1.2363   -6.0109    8.8247 C   0  0  0  0  0  0  0  0  0  0  0  0
    1.6809   -6.8122    7.8498 C   0  0  0  0  0  0  0  0  0  0  0  0
    1.2335   -6.7506    6.5608 C   0  0  0  0  0  0  0  0  0  0  0  0
    0.8225   -6.6948    5.3788 C   0  0  0  0  0  0  0  0  0  0  0  0
   -0.4995   -6.4123    4.7806 C   0  0  0  0  0  0  0  0  0  0  0  0
   -0.8057   -5.1766    4.4905 C   0  0  0  0  0  0  0  0  0  0  0  0
   -0.7126   -4.4503    3.2214 C   0  0  0  0  0  0  0  0  0  0  0  0
   -1.5762   -3.3791    2.9707 N   0  0  0  0  0  0  0  0  0  0  0  0
   -1.4516   -2.6945    1.7416 C   0  0  0  0  0  0  0  0  0  0  0  0
   -0.0272   -2.2304    1.4330 C   0  0  0  0  0  0  0  0  0  0  0  0
    0.0164   -0.7128    1.3247 C   0  0  0  0  0  0  0  0  0  0  0  0
    0.5069   -0.2917   -0.0430 C   0  0  0  0  0  0  0  0  0  0  0  0
    1.4410    0.8785   -0.0082 C   0  0  0  0  0  0  0  0  0  0  0  0
    2.2459    0.9870   -1.2692 C   0  0  0  0  0  0  0  0  0  0  0  0
    1.9801    0.3859   -2.3278 O   0  0  0  0  0  0  0  0  0  0  0  0
    3.3643    1.8168   -1.2456 O   0  0  0  0  0  0  0  0  0  0  0  0
    0.7955    2.1491    0.2380 N   0  0  0  0  0  0  0  0  0  0  0  0
   -1.4098   -7.5763    4.6717 C   0  0  0  0  0  0  0  0  0  0  0  0
   -0.0749   -6.3220    9.4440 C   0  0  0  0  0  0  0  0  0  0  0  0
  1  2  1  0
  2  3  2  0
  3  4  1  0
  4  5  1  0
  5  6  1  0
  6  7  1  0
  4  8  1  0
  4  9  1  0
  3 10  1  0
 10 11  2  3
 11 12  1  0
 12 13  2  3
 13 14  1  0
 14 15  2  3
 15 16  1  0
 16 17  2  3
 17 18  1  0
 18 19  1  0
 19 20  1  0
 20 21  1  0
 21 22  1  0
 22 23  1  0
 23 24  1  0
 24 25  1  0
 25 26  2  0
 25 27  1  0
 24 28  1  0
 16 29  1  0
 12 30  1  0
  7  2  1  0
M  END
$$$$
