
     RDKit          3D

 30 30  0  0  0  0  0  0  0  0999 V2000
    2.7513   -7.4643    9.7229 C   0  0  0  0  0  0  0  0  0  0  0  0
    3.3110   -7.8320    8.3881 C   0  0  0  0  0  0  0  0  0  0  0  0
    2.5957   -7.7287    7.2942 C   0  0  0  0  0  0  0  0  0  0  0  0
    3.1885   -8.1068    5.9326 C   0  0  0  0  0  0  0  0  0  0  0  0
    4.5048   -8.7604    6.0166 C   0  0  0  0  0  0  0  0  0  0  0  0
    5.3446   -8.0010    7.0372 C   0  0  0  0  0  0  0  0  0  0  0  0
    4.7356   -8.3402    8.3695 C   0  0  0  0  0  0  0  0  0  0  0  0
    2.1985   -9.1364    5.3732 C   0  0  0  0  0  0  0  0  0  0  0  0
    3.1535   -6.9031    5.0349 C   0  0  0  0  0  0  0  0  0  0  0  0
    1.2236   -7.2946    7.2545 C   0  0  0  0  0  0  0  0  0  0  0  0
    0.5884   -6.2103    7.4637 C   0  0  0  0  0  0  0  0  0  0  0  0
   -0.8838   -6.2080    7.3790 C   0  0  0  0  0  0  0  0  0  0  0  0
   -1.6697   -5.3818    8.0789 C   0  0  0  0  0  0  0  0  0  0  0  0
   -1.5785   -4.0205    8.0151 C   0  0  0  0  0  0  0  0  0  0  0  0
   -1.4940   -2.7721    7.9571 C   0  0  0  0  0  0  0  0  0  0  0  0
   -0.8637   -1.8453    6.9932 C   0  0  0  0  0  0  0  0  0  0  0  0
   -0.6204   -0.6188    7.3692 C   0  0  0  0  0  0  0  0  0  0  0  0
    0.6405    0.1263    7.4129 C   0  0  0  0  0  0  0  0  0  0  0  0
    0.6396    1.4677    7.8091 N   0  0  0  0  0  0  0  0  0  0  0  0
    1.3475    1.8184    8.9800 C   0  0  0  0  0  0  0  0  0  0  0  0
    0.4791    1.8634   10.2383 C   0  0  0  0  0  0  0  0  0  0  0  0
   -0.4786    3.0444   10.1707 C   0  0  0  0  0  0  0  0  0  0  0  0
   -1.3300    3.1100   11.4195 C   0  0  0  0  0  0  0  0  0  0  0  0
   -1.9502    4.4537   11.6496 C   0  0  0  0  0  0  0  0  0  0  0  0
   -1.7919    4.9047   13.0713 C   0  0  0  0  0  0  0  0  0  0  0  0
   -1.7961    4.1417   14.0563 O   0  0  0  0  0  0  0  0  0  0  0  0
   -1.6310    6.2699   13.2959 O   0  0  0  0  0  0  0  0  0  0  0  0
   -1.4554    5.4958   10.7772 N   0  0  0  0  0  0  0  0  0  0  0  0
   -0.6696   -2.3845    5.6268 C   0  0  0  0  0  0  0  0  0  0  0  0
   -1.5301   -7.2163    6.5043 C   0  0  0  0  0  0  0  0  0  0  0  0
  1  2  1  0
  2  3  2  0
  3  4  1  0
  4  5  1  0
  5  6  1  0
  6  7  1  0
  4  8  1  0
  4  9  1  0
  3 10  1  0
 10 11  2  3
 11 12  1  0
 12 13  2  3
 13 14  1  0
 14 15  2  3
 15 16  1  0
 16 17  2  3
 17 18  1  0
 18 19  1  0
 19 20  1  0
 20 21  1  0
 21 22  1  0
 22 23  1  0
 23 24  1  0
 24 25  1  0
 25 26  2  0
 25 27  1  0
 24 28  1  0
 16 29  1  0
 12 30  1  0
  7  2  1  0
M  END
$$$$
