
     RDKit          3D

 30 30  0  0  0  0  0  0  0  0999 V2000
   -0.2771   -7.0436   10.6338 C   0  0  0  0  0  0  0  0  0  0  0  0
   -1.5898   -7.7193   10.8587 C   0  0  0  0  0  0  0  0  0  0  0  0
   -2.2876   -8.2076    9.8620 C   0  0  0  0  0  0  0  0  0  0  0  0
   -3.6309   -8.9013   10.1126 C   0  0  0  0  0  0  0  0  0  0  0  0
   -4.1173   -8.7759   11.4963 C   0  0  0  0  0  0  0  0  0  0  0  0
   -2.9400   -9.0170   12.4342 C   0  0  0  0  0  0  0  0  0  0  0  0
   -2.0734   -7.7966   12.2899 C   0  0  0  0  0  0  0  0  0  0  0  0
   -4.6114   -8.1423    9.2096 C   0  0  0  0  0  0  0  0  0  0  0  0
   -3.5493  -10.3156    9.6132 C   0  0  0  0  0  0  0  0  0  0  0  0
   -1.9012   -8.1249    8.4777 C   0  0  0  0  0  0  0  0  0  0  0  0
   -1.7509   -7.2033    7.6110 C   0  0  0  0  0  0  0  0  0  0  0  0
   -1.0717   -7.5118    6.3391 C   0  0  0  0  0  0  0  0  0  0  0  0
    0.0402   -6.8973    5.9192 C   0  0  0  0  0  0  0  0  0  0  0  0
    0.1633   -5.5399    5.8301 C   0  0  0  0  0  0  0  0  0  0  0  0
    0.2764   -4.2950    5.7494 C   0  0  0  0  0  0  0  0  0  0  0  0
    1.1357   -3.3111    6.4415 C   0  0  0  0  0  0  0  0  0  0  0  0
    0.8346   -2.0437    6.3537 C   0  0  0  0  0  0  0  0  0  0  0  0
    0.0375   -1.3261    5.3554 C   0  0  0  0  0  0  0  0  0  0  0  0
   -0.1062    0.0619    5.4504 N   0  0  0  0  0  0  0  0  0  0  0  0
    0.7668    0.8767    4.6962 C   0  0  0  0  0  0  0  0  0  0  0  0
    0.1849    1.3345    3.3578 C   0  0  0  0  0  0  0  0  0  0  0  0
    0.3999    0.2616    2.2998 C   0  0  0  0  0  0  0  0  0  0  0  0
    1.1796    0.8187    1.1292 C   0  0  0  0  0  0  0  0  0  0  0  0
    0.3749    0.9213   -0.1298 C   0  0  0  0  0  0  0  0  0  0  0  0
    0.3997    2.3102   -0.6957 C   0  0  0  0  0  0  0  0  0  0  0  0
   -0.6148    2.9540   -1.0254 O   0  0  0  0  0  0  0  0  0  0  0  0
    1.6449    2.9120   -0.8613 O   0  0  0  0  0  0  0  0  0  0  0  0
    0.7695   -0.0066   -1.1666 N   0  0  0  0  0  0  0  0  0  0  0  0
    2.3466   -3.8686    7.0883 C   0  0  0  0  0  0  0  0  0  0  0  0
   -1.6885   -8.5275    5.4516 C   0  0  0  0  0  0  0  0  0  0  0  0
  1  2  1  0
  2  3  2  0
  3  4  1  0
  4  5  1  0
  5  6  1  0
  6  7  1  0
  4  8  1  0
  4  9  1  0
  3 10  1  0
 10 11  2  3
 11 12  1  0
 12 13  2  3
 13 14  1  0
 14 15  2  3
 15 16  1  0
 16 17  2  3
 17 18  1  0
 18 19  1  0
 19 20  1  0
 20 21  1  0
 21 22  1  0
 22 23  1  0
 23 24  1  0
 24 25  1  0
 25 26  2  0
 25 27  1  0
 24 28  1  0
 16 29  1  0
 12 30  1  0
  7  2  1  0
M  END
$$$$
