
     RDKit          3D

 30 30  0  0  0  0  0  0  0  0999 V2000
   -2.9849   -3.0442   10.8142 C   0  0  0  0  0  0  0  0  0  0  0  0
   -1.6266   -2.6811   10.3110 C   0  0  0  0  0  0  0  0  0  0  0  0
   -0.9789   -3.4528    9.4719 C   0  0  0  0  0  0  0  0  0  0  0  0
    0.4126   -3.0617    8.9630 C   0  0  0  0  0  0  0  0  0  0  0  0
    0.9912   -1.8943    9.6481 C   0  0  0  0  0  0  0  0  0  0  0  0
   -0.1010   -0.8402    9.7886 C   0  0  0  0  0  0  0  0  0  0  0  0
   -1.0369   -1.3885   10.8300 C   0  0  0  0  0  0  0  0  0  0  0  0
    1.2850   -4.2758    9.3065 C   0  0  0  0  0  0  0  0  0  0  0  0
    0.3673   -2.9390    7.4666 C   0  0  0  0  0  0  0  0  0  0  0  0
   -1.4687   -4.7134    8.9783 C   0  0  0  0  0  0  0  0  0  0  0  0
   -2.2872   -5.1031    8.0832 C   0  0  0  0  0  0  0  0  0  0  0  0
   -2.3956   -6.5423    7.7812 C   0  0  0  0  0  0  0  0  0  0  0  0
   -2.6531   -7.0313    6.5626 C   0  0  0  0  0  0  0  0  0  0  0  0
   -1.8335   -6.8429    5.4864 C   0  0  0  0  0  0  0  0  0  0  0  0
   -1.0826   -6.6704    4.4987 C   0  0  0  0  0  0  0  0  0  0  0  0
    0.3598   -6.9021    4.2728 C   0  0  0  0  0  0  0  0  0  0  0  0
    1.0682   -5.9554    3.7189 C   0  0  0  0  0  0  0  0  0  0  0  0
    1.3189   -4.5798    4.1569 C   0  0  0  0  0  0  0  0  0  0  0  0
    2.3706   -3.8526    3.5900 N   0  0  0  0  0  0  0  0  0  0  0  0
    2.1614   -2.4840    3.3106 C   0  0  0  0  0  0  0  0  0  0  0  0
    1.3092   -2.2293    2.0664 C   0  0  0  0  0  0  0  0  0  0  0  0
    1.0110   -0.7427    1.9321 C   0  0  0  0  0  0  0  0  0  0  0  0
    0.4922   -0.4281    0.5463 C   0  0  0  0  0  0  0  0  0  0  0  0
    0.8999    0.9245    0.0489 C   0  0  0  0  0  0  0  0  0  0  0  0
    0.4748    1.1473   -1.3722 C   0  0  0  0  0  0  0  0  0  0  0  0
   -0.1205    0.3034   -2.0693 O   0  0  0  0  0  0  0  0  0  0  0  0
    0.7706    2.3830   -1.9427 O   0  0  0  0  0  0  0  0  0  0  0  0
    0.4174    2.0256    0.8529 N   0  0  0  0  0  0  0  0  0  0  0  0
    0.8446   -8.2624    4.6042 C   0  0  0  0  0  0  0  0  0  0  0  0
   -2.2616   -7.4995    8.9061 C   0  0  0  0  0  0  0  0  0  0  0  0
  1  2  1  0
  2  3  2  0
  3  4  1  0
  4  5  1  0
  5  6  1  0
  6  7  1  0
  4  8  1  0
  4  9  1  0
  3 10  1  0
 10 11  2  3
 11 12  1  0
 12 13  2  3
 13 14  1  0
 14 15  2  3
 15 16  1  0
 16 17  2  3
 17 18  1  0
 18 19  1  0
 19 20  1  0
 20 21  1  0
 21 22  1  0
 22 23  1  0
 23 24  1  0
 24 25  1  0
 25 26  2  0
 25 27  1  0
 24 28  1  0
 16 29  1  0
 12 30  1  0
  7  2  1  0
M  END
$$$$
