
     RDKit          3D

 30 30  0  0  0  0  0  0  0  0999 V2000
    1.4064   -3.4325   11.5220 C   0  0  0  0  0  0  0  0  0  0  0  0
   -0.0788   -3.5703   11.5947 C   0  0  0  0  0  0  0  0  0  0  0  0
   -0.7124   -4.5064   10.9304 C   0  0  0  0  0  0  0  0  0  0  0  0
   -2.2368   -4.6350   11.0206 C   0  0  0  0  0  0  0  0  0  0  0  0
   -2.8879   -3.5212   11.7294 C   0  0  0  0  0  0  0  0  0  0  0  0
   -2.0669   -3.2106   12.9757 C   0  0  0  0  0  0  0  0  0  0  0  0
   -0.8088   -2.5678   12.4608 C   0  0  0  0  0  0  0  0  0  0  0  0
   -2.6978   -4.5820    9.5584 C   0  0  0  0  0  0  0  0  0  0  0  0
   -2.5799   -5.9942   11.5600 C   0  0  0  0  0  0  0  0  0  0  0  0
   -0.0779   -5.4590   10.0572 C   0  0  0  0  0  0  0  0  0  0  0  0
   -0.4512   -6.4087    9.2944 C   0  0  0  0  0  0  0  0  0  0  0  0
    0.5187   -7.0073    8.3589 C   0  0  0  0  0  0  0  0  0  0  0  0
    0.4336   -6.9020    7.0278 C   0  0  0  0  0  0  0  0  0  0  0  0
    0.3953   -5.7072    6.3672 C   0  0  0  0  0  0  0  0  0  0  0  0
    0.3597   -4.6109    5.7623 C   0  0  0  0  0  0  0  0  0  0  0  0
   -0.3479   -4.1480    4.5497 C   0  0  0  0  0  0  0  0  0  0  0  0
    0.1908   -3.1990    3.8327 C   0  0  0  0  0  0  0  0  0  0  0  0
    0.0179   -2.8678    2.4159 C   0  0  0  0  0  0  0  0  0  0  0  0
    1.0018   -3.2366    1.4927 N   0  0  0  0  0  0  0  0  0  0  0  0
    2.1895   -2.4739    1.4423 C   0  0  0  0  0  0  0  0  0  0  0  0
    2.4304   -1.7914    0.0948 C   0  0  0  0  0  0  0  0  0  0  0  0
    1.8727   -0.3754    0.1188 C   0  0  0  0  0  0  0  0  0  0  0  0
    2.0205    0.2767   -1.2382 C   0  0  0  0  0  0  0  0  0  0  0  0
    1.2625    1.5618   -1.3691 C   0  0  0  0  0  0  0  0  0  0  0  0
    1.7061    2.3514   -2.5646 C   0  0  0  0  0  0  0  0  0  0  0  0
    1.1578    3.3983   -2.9595 O   0  0  0  0  0  0  0  0  0  0  0  0
    2.8047    1.8743   -3.2756 O   0  0  0  0  0  0  0  0  0  0  0  0
   -0.1738    1.4032   -1.4278 N   0  0  0  0  0  0  0  0  0  0  0  0
   -1.6853   -4.7457    4.3270 C   0  0  0  0  0  0  0  0  0  0  0  0
    1.6238   -7.8160    8.9285 C   0  0  0  0  0  0  0  0  0  0  0  0
  1  2  1  0
  2  3  2  0
  3  4  1  0
  4  5  1  0
  5  6  1  0
  6  7  1  0
  4  8  1  0
  4  9  1  0
  3 10  1  0
 10 11  2  3
 11 12  1  0
 12 13  2  3
 13 14  1  0
 14 15  2  3
 15 16  1  0
 16 17  2  3
 17 18  1  0
 18 19  1  0
 19 20  1  0
 20 21  1  0
 21 22  1  0
 22 23  1  0
 23 24  1  0
 24 25  1  0
 25 26  2  0
 25 27  1  0
 24 28  1  0
 16 29  1  0
 12 30  1  0
  7  2  1  0
M  END
$$$$
