
     RDKit          3D

 30 30  0  0  0  0  0  0  0  0999 V2000
    0.8724   -7.4651    6.1597 C   0  0  0  0  0  0  0  0  0  0  0  0
   -0.3445   -8.1124    6.7346 C   0  0  0  0  0  0  0  0  0  0  0  0
   -1.1035   -7.4913    7.6047 C   0  0  0  0  0  0  0  0  0  0  0  0
   -2.3509   -8.1700    8.1807 C   0  0  0  0  0  0  0  0  0  0  0  0
   -2.4727   -9.5932    7.8251 C   0  0  0  0  0  0  0  0  0  0  0  0
   -2.1291   -9.7416    6.3474 C   0  0  0  0  0  0  0  0  0  0  0  0
   -0.6437   -9.5207    6.2708 C   0  0  0  0  0  0  0  0  0  0  0  0
   -2.1451   -8.0911    9.6988 C   0  0  0  0  0  0  0  0  0  0  0  0
   -3.5573   -7.3432    7.8385 C   0  0  0  0  0  0  0  0  0  0  0  0
   -0.8457   -6.1705    8.1162 C   0  0  0  0  0  0  0  0  0  0  0  0
   -1.1289   -5.5135    9.1704 C   0  0  0  0  0  0  0  0  0  0  0  0
   -0.4876   -4.2058    9.4004 C   0  0  0  0  0  0  0  0  0  0  0  0
   -1.1623   -3.0791    9.6565 C   0  0  0  0  0  0  0  0  0  0  0  0
   -0.5794   -1.8446    9.6982 C   0  0  0  0  0  0  0  0  0  0  0  0
   -0.0439   -0.7128    9.7366 C   0  0  0  0  0  0  0  0  0  0  0  0
    0.5445    0.1627    8.7010 C   0  0  0  0  0  0  0  0  0  0  0  0
   -0.2560    0.8444    7.9269 C   0  0  0  0  0  0  0  0  0  0  0  0
   -0.8667    0.4855    6.6443 C   0  0  0  0  0  0  0  0  0  0  0  0
   -0.0522    0.1390    5.5614 N   0  0  0  0  0  0  0  0  0  0  0  0
    0.5906    1.1766    4.8505 C   0  0  0  0  0  0  0  0  0  0  0  0
   -0.2843    1.8258    3.7770 C   0  0  0  0  0  0  0  0  0  0  0  0
   -0.3942    0.9089    2.5670 C   0  0  0  0  0  0  0  0  0  0  0  0
    0.5247    1.3773    1.4604 C   0  0  0  0  0  0  0  0  0  0  0  0
   -0.0679    1.2361    0.0922 C   0  0  0  0  0  0  0  0  0  0  0  0
    0.3779    2.3364   -0.8246 C   0  0  0  0  0  0  0  0  0  0  0  0
   -0.2920    3.3560   -1.0781 O   0  0  0  0  0  0  0  0  0  0  0  0
    1.6250    2.2000   -1.4296 O   0  0  0  0  0  0  0  0  0  0  0  0
    0.2013   -0.0336   -0.5458 N   0  0  0  0  0  0  0  0  0  0  0  0
    2.0186    0.0899    8.5697 C   0  0  0  0  0  0  0  0  0  0  0  0
    0.9894   -4.1282    9.2899 C   0  0  0  0  0  0  0  0  0  0  0  0
  1  2  1  0
  2  3  2  0
  3  4  1  0
  4  5  1  0
  5  6  1  0
  6  7  1  0
  4  8  1  0
  4  9  1  0
  3 10  1  0
 10 11  2  3
 11 12  1  0
 12 13  2  3
 13 14  1  0
 14 15  2  3
 15 16  1  0
 16 17  2  3
 17 18  1  0
 18 19  1  0
 19 20  1  0
 20 21  1  0
 21 22  1  0
 22 23  1  0
 23 24  1  0
 24 25  1  0
 25 26  2  0
 25 27  1  0
 24 28  1  0
 16 29  1  0
 12 30  1  0
  7  2  1  0
M  END
$$$$
