
     RDKit          3D

 30 30  0  0  0  0  0  0  0  0999 V2000
   -2.7497   -0.3223   10.8077 C   0  0  0  0  0  0  0  0  0  0  0  0
   -1.4101   -0.0857   11.4239 C   0  0  0  0  0  0  0  0  0  0  0  0
   -0.4144   -0.9179   11.2371 C   0  0  0  0  0  0  0  0  0  0  0  0
    0.9545   -0.6563   11.8742 C   0  0  0  0  0  0  0  0  0  0  0  0
    0.9614    0.4593   12.8346 C   0  0  0  0  0  0  0  0  0  0  0  0
    0.1622    1.6078   12.2297 C   0  0  0  0  0  0  0  0  0  0  0  0
   -1.2700    1.1526   12.2813 C   0  0  0  0  0  0  0  0  0  0  0  0
    1.2468   -1.9412   12.6595 C   0  0  0  0  0  0  0  0  0  0  0  0
    1.9839   -0.5403   10.7864 C   0  0  0  0  0  0  0  0  0  0  0  0
   -0.4996   -2.1330   10.4697 C   0  0  0  0  0  0  0  0  0  0  0  0
   -1.1336   -2.5367    9.4411 C   0  0  0  0  0  0  0  0  0  0  0  0
   -0.8118   -3.8559    8.8661 C   0  0  0  0  0  0  0  0  0  0  0  0
   -0.9912   -4.1720    7.5784 C   0  0  0  0  0  0  0  0  0  0  0  0
    0.0363   -4.4118    6.7111 C   0  0  0  0  0  0  0  0  0  0  0  0
    0.9784   -4.6310    5.9151 C   0  0  0  0  0  0  0  0  0  0  0  0
    1.2325   -5.6916    4.9172 C   0  0  0  0  0  0  0  0  0  0  0  0
    0.6280   -5.6240    3.7618 C   0  0  0  0  0  0  0  0  0  0  0  0
    0.8534   -4.7266    2.6257 C   0  0  0  0  0  0  0  0  0  0  0  0
    0.0568   -4.8426    1.4820 N   0  0  0  0  0  0  0  0  0  0  0  0
    0.5304   -4.2757    0.2781 C   0  0  0  0  0  0  0  0  0  0  0  0
    1.4525   -3.0724    0.4811 C   0  0  0  0  0  0  0  0  0  0  0  0
    0.9191   -1.8698   -0.2843 C   0  0  0  0  0  0  0  0  0  0  0  0
    1.0009   -0.6206    0.5650 C   0  0  0  0  0  0  0  0  0  0  0  0
    1.8245    0.4678   -0.0514 C   0  0  0  0  0  0  0  0  0  0  0  0
    0.9825    1.6384   -0.4641 C   0  0  0  0  0  0  0  0  0  0  0  0
    1.4288    2.7768   -0.7036 O   0  0  0  0  0  0  0  0  0  0  0  0
   -0.3894    1.4299   -0.5839 O   0  0  0  0  0  0  0  0  0  0  0  0
    2.9019    0.9468    0.7861 N   0  0  0  0  0  0  0  0  0  0  0  0
    2.0825   -6.8123    5.3831 C   0  0  0  0  0  0  0  0  0  0  0  0
   -0.3079   -4.9078    9.7821 C   0  0  0  0  0  0  0  0  0  0  0  0
  1  2  1  0
  2  3  2  0
  3  4  1  0
  4  5  1  0
  5  6  1  0
  6  7  1  0
  4  8  1  0
  4  9  1  0
  3 10  1  0
 10 11  2  3
 11 12  1  0
 12 13  2  3
 13 14  1  0
 14 15  2  3
 15 16  1  0
 16 17  2  3
 17 18  1  0
 18 19  1  0
 19 20  1  0
 20 21  1  0
 21 22  1  0
 22 23  1  0
 23 24  1  0
 24 25  1  0
 25 26  2  0
 25 27  1  0
 24 28  1  0
 16 29  1  0
 12 30  1  0
  7  2  1  0
M  END
$$$$
