
     RDKit          3D

 30 30  0  0  0  0  0  0  0  0999 V2000
    1.7928   -4.8646   13.3282 C   0  0  0  0  0  0  0  0  0  0  0  0
    3.2638   -5.1154   13.3857 C   0  0  0  0  0  0  0  0  0  0  0  0
    3.8878   -5.7503   12.4232 C   0  0  0  0  0  0  0  0  0  0  0  0
    5.3988   -5.9948   12.4976 C   0  0  0  0  0  0  0  0  0  0  0  0
    5.9963   -5.6416   13.7958 C   0  0  0  0  0  0  0  0  0  0  0  0
    5.4105   -4.3052   14.2370 C   0  0  0  0  0  0  0  0  0  0  0  0
    3.9876   -4.6117   14.6147 C   0  0  0  0  0  0  0  0  0  0  0  0
    5.5349   -7.5131   12.3264 C   0  0  0  0  0  0  0  0  0  0  0  0
    6.0570   -5.3400   11.3169 C   0  0  0  0  0  0  0  0  0  0  0  0
    3.2469   -6.2908   11.2529 C   0  0  0  0  0  0  0  0  0  0  0  0
    2.5116   -5.8482   10.3113 C   0  0  0  0  0  0  0  0  0  0  0  0
    1.8866   -6.8003    9.3747 C   0  0  0  0  0  0  0  0  0  0  0  0
    0.8293   -6.5078    8.6087 C   0  0  0  0  0  0  0  0  0  0  0  0
    0.8426   -6.5836    7.2450 C   0  0  0  0  0  0  0  0  0  0  0  0
    0.8539   -6.6535    5.9944 C   0  0  0  0  0  0  0  0  0  0  0  0
    0.0295   -6.0268    4.9395 C   0  0  0  0  0  0  0  0  0  0  0  0
   -0.2766   -4.7623    5.0507 C   0  0  0  0  0  0  0  0  0  0  0  0
   -1.0156   -3.8828    4.1411 C   0  0  0  0  0  0  0  0  0  0  0  0
   -1.3598   -2.5913    4.5529 N   0  0  0  0  0  0  0  0  0  0  0  0
   -0.5810   -1.5109    4.0825 C   0  0  0  0  0  0  0  0  0  0  0  0
   -0.8932   -1.1038    2.6416 C   0  0  0  0  0  0  0  0  0  0  0  0
    0.2339   -0.2457    2.0848 C   0  0  0  0  0  0  0  0  0  0  0  0
    0.9156   -0.9476    0.9310 C   0  0  0  0  0  0  0  0  0  0  0  0
    0.7918   -0.2162   -0.3701 C   0  0  0  0  0  0  0  0  0  0  0  0
    0.7033    1.2676   -0.1693 C   0  0  0  0  0  0  0  0  0  0  0  0
   -0.3642    1.8998   -0.0540 O   0  0  0  0  0  0  0  0  0  0  0  0
    1.8997    1.9783   -0.1102 O   0  0  0  0  0  0  0  0  0  0  0  0
    1.8541   -0.4918   -1.3121 N   0  0  0  0  0  0  0  0  0  0  0  0
   -0.4724   -6.9483    3.8934 C   0  0  0  0  0  0  0  0  0  0  0  0
    2.4328   -8.1781    9.3184 C   0  0  0  0  0  0  0  0  0  0  0  0
  1  2  1  0
  2  3  2  0
  3  4  1  0
  4  5  1  0
  5  6  1  0
  6  7  1  0
  4  8  1  0
  4  9  1  0
  3 10  1  0
 10 11  2  3
 11 12  1  0
 12 13  2  3
 13 14  1  0
 14 15  2  3
 15 16  1  0
 16 17  2  3
 17 18  1  0
 18 19  1  0
 19 20  1  0
 20 21  1  0
 21 22  1  0
 22 23  1  0
 23 24  1  0
 24 25  1  0
 25 26  2  0
 25 27  1  0
 24 28  1  0
 16 29  1  0
 12 30  1  0
  7  2  1  0
M  END
$$$$
