
     RDKit          3D

 30 30  0  0  0  0  0  0  0  0999 V2000
    0.0233   -6.1602   12.7131 C   0  0  0  0  0  0  0  0  0  0  0  0
    0.3959   -4.7360   12.4620 C   0  0  0  0  0  0  0  0  0  0  0  0
    0.4480   -4.2464   11.2468 C   0  0  0  0  0  0  0  0  0  0  0  0
    0.8284   -2.7811   11.0088 C   0  0  0  0  0  0  0  0  0  0  0  0
    1.3052   -2.0857   12.2154 C   0  0  0  0  0  0  0  0  0  0  0  0
    0.3873   -2.4642   13.3721 C   0  0  0  0  0  0  0  0  0  0  0  0
    0.7211   -3.8980   13.6785 C   0  0  0  0  0  0  0  0  0  0  0  0
    2.0055   -2.8609   10.0284 C   0  0  0  0  0  0  0  0  0  0  0  0
   -0.3063   -2.0912   10.3069 C   0  0  0  0  0  0  0  0  0  0  0  0
    0.1931   -5.0048   10.0500 C   0  0  0  0  0  0  0  0  0  0  0  0
   -0.7305   -5.0726    9.1751 C   0  0  0  0  0  0  0  0  0  0  0  0
   -0.6269   -6.0669    8.0911 C   0  0  0  0  0  0  0  0  0  0  0  0
   -0.9732   -5.8249    6.8216 C   0  0  0  0  0  0  0  0  0  0  0  0
   -0.1944   -6.1605    5.7510 C   0  0  0  0  0  0  0  0  0  0  0  0
    0.5206   -6.4677    4.7693 C   0  0  0  0  0  0  0  0  0  0  0  0
    0.8726   -5.7665    3.5164 C   0  0  0  0  0  0  0  0  0  0  0  0
    0.8377   -4.4614    3.4966 C   0  0  0  0  0  0  0  0  0  0  0  0
   -0.0481   -3.5482    2.7698 C   0  0  0  0  0  0  0  0  0  0  0  0
    0.4652   -2.3601    2.2397 N   0  0  0  0  0  0  0  0  0  0  0  0
   -0.4176   -1.5013    1.5481 C   0  0  0  0  0  0  0  0  0  0  0  0
   -0.1139   -1.3737    0.0545 C   0  0  0  0  0  0  0  0  0  0  0  0
    1.1529   -0.5559   -0.1535 C   0  0  0  0  0  0  0  0  0  0  0  0
    0.8372    0.7404   -0.8665 C   0  0  0  0  0  0  0  0  0  0  0  0
    2.0553    1.4867   -1.3161 C   0  0  0  0  0  0  0  0  0  0  0  0
    2.0451    1.7305   -2.7961 C   0  0  0  0  0  0  0  0  0  0  0  0
    2.9080    1.3015   -3.5860 O   0  0  0  0  0  0  0  0  0  0  0  0
    0.9977    2.4893   -3.3129 O   0  0  0  0  0  0  0  0  0  0  0  0
    2.2635    2.7492   -0.6420 N   0  0  0  0  0  0  0  0  0  0  0  0
    1.1272   -6.6417    2.3482 C   0  0  0  0  0  0  0  0  0  0  0  0
   -0.1593   -7.4299    8.4422 C   0  0  0  0  0  0  0  0  0  0  0  0
  1  2  1  0
  2  3  2  0
  3  4  1  0
  4  5  1  0
  5  6  1  0
  6  7  1  0
  4  8  1  0
  4  9  1  0
  3 10  1  0
 10 11  2  3
 11 12  1  0
 12 13  2  3
 13 14  1  0
 14 15  2  3
 15 16  1  0
 16 17  2  3
 17 18  1  0
 18 19  1  0
 19 20  1  0
 20 21  1  0
 21 22  1  0
 22 23  1  0
 23 24  1  0
 24 25  1  0
 25 26  2  0
 25 27  1  0
 24 28  1  0
 16 29  1  0
 12 30  1  0
  7  2  1  0
M  END
$$$$
