
     RDKit          3D

 30 30  0  0  0  0  0  0  0  0999 V2000
    1.6239   -4.7228   11.4276 C   0  0  0  0  0  0  0  0  0  0  0  0
    0.5221   -3.8496   11.9315 C   0  0  0  0  0  0  0  0  0  0  0  0
   -0.6722   -3.8745   11.3911 C   0  0  0  0  0  0  0  0  0  0  0  0
   -1.7917   -2.9741   11.9243 C   0  0  0  0  0  0  0  0  0  0  0  0
   -1.3393   -1.9850   12.9163 C   0  0  0  0  0  0  0  0  0  0  0  0
   -0.3893   -2.6850   13.8814 C   0  0  0  0  0  0  0  0  0  0  0  0
    0.8616   -2.9306   13.0840 C   0  0  0  0  0  0  0  0  0  0  0  0
   -2.2637   -2.2012   10.6862 C   0  0  0  0  0  0  0  0  0  0  0  0
   -2.9310   -3.8362   12.3879 C   0  0  0  0  0  0  0  0  0  0  0  0
   -1.0419   -4.6937   10.2664 C   0  0  0  0  0  0  0  0  0  0  0  0
   -0.9980   -4.5987    8.9967 C   0  0  0  0  0  0  0  0  0  0  0  0
   -1.4680   -5.7267    8.1715 C   0  0  0  0  0  0  0  0  0  0  0  0
   -0.6576   -6.5189    7.4602 C   0  0  0  0  0  0  0  0  0  0  0  0
   -0.3348   -6.2879    6.1533 C   0  0  0  0  0  0  0  0  0  0  0  0
   -0.0397   -6.0764    4.9544 C   0  0  0  0  0  0  0  0  0  0  0  0
    1.2446   -5.8808    4.2489 C   0  0  0  0  0  0  0  0  0  0  0  0
    1.2299   -5.7117    2.9543 C   0  0  0  0  0  0  0  0  0  0  0  0
    1.0105   -4.5005    2.1595 C   0  0  0  0  0  0  0  0  0  0  0  0
    1.2377   -4.5263    0.7797 N   0  0  0  0  0  0  0  0  0  0  0  0
    0.4482   -3.6923   -0.0426 C   0  0  0  0  0  0  0  0  0  0  0  0
    1.1843   -2.4544   -0.5574 C   0  0  0  0  0  0  0  0  0  0  0  0
    0.4476   -1.1927   -0.1306 C   0  0  0  0  0  0  0  0  0  0  0  0
    0.6515   -0.0895   -1.1454 C   0  0  0  0  0  0  0  0  0  0  0  0
    1.1377    1.1929   -0.5438 C   0  0  0  0  0  0  0  0  0  0  0  0
    1.3238    2.2601   -1.5812 C   0  0  0  0  0  0  0  0  0  0  0  0
    2.0786    2.1591   -2.5673 O   0  0  0  0  0  0  0  0  0  0  0  0
    0.6011    3.4402   -1.4226 O   0  0  0  0  0  0  0  0  0  0  0  0
    0.2945    1.7148    0.5090 N   0  0  0  0  0  0  0  0  0  0  0  0
    2.4579   -6.0118    5.0893 C   0  0  0  0  0  0  0  0  0  0  0  0
   -2.9298   -5.9626    8.0866 C   0  0  0  0  0  0  0  0  0  0  0  0
  1  2  1  0
  2  3  2  0
  3  4  1  0
  4  5  1  0
  5  6  1  0
  6  7  1  0
  4  8  1  0
  4  9  1  0
  3 10  1  0
 10 11  2  3
 11 12  1  0
 12 13  2  3
 13 14  1  0
 14 15  2  3
 15 16  1  0
 16 17  2  3
 17 18  1  0
 18 19  1  0
 19 20  1  0
 20 21  1  0
 21 22  1  0
 22 23  1  0
 23 24  1  0
 24 25  1  0
 25 26  2  0
 25 27  1  0
 24 28  1  0
 16 29  1  0
 12 30  1  0
  7  2  1  0
M  END
$$$$
