
     RDKit          3D

 30 30  0  0  0  0  0  0  0  0999 V2000
   -4.5291   -6.5437    9.2651 C   0  0  0  0  0  0  0  0  0  0  0  0
   -4.1180   -6.9371   10.6459 C   0  0  0  0  0  0  0  0  0  0  0  0
   -2.8691   -7.2107   10.9362 C   0  0  0  0  0  0  0  0  0  0  0  0
   -2.4654   -7.6086   12.3599 C   0  0  0  0  0  0  0  0  0  0  0  0
   -3.6067   -7.8394   13.2604 C   0  0  0  0  0  0  0  0  0  0  0  0
   -4.6214   -6.7251   13.0315 C   0  0  0  0  0  0  0  0  0  0  0  0
   -5.2175   -7.0151   11.6818 C   0  0  0  0  0  0  0  0  0  0  0  0
   -1.7451   -8.9506   12.1769 C   0  0  0  0  0  0  0  0  0  0  0  0
   -1.4623   -6.6172   12.8769 C   0  0  0  0  0  0  0  0  0  0  0  0
   -1.7885   -7.1969    9.9851 C   0  0  0  0  0  0  0  0  0  0  0  0
   -1.5051   -6.5684    8.9137 C   0  0  0  0  0  0  0  0  0  0  0  0
   -0.2729   -6.9111    8.1798 C   0  0  0  0  0  0  0  0  0  0  0  0
   -0.2065   -7.0311    6.8489 C   0  0  0  0  0  0  0  0  0  0  0  0
    0.4125   -6.1210    6.0402 C   0  0  0  0  0  0  0  0  0  0  0  0
    0.9808   -5.2871    5.2980 C   0  0  0  0  0  0  0  0  0  0  0  0
    0.7606   -4.8638    3.8989 C   0  0  0  0  0  0  0  0  0  0  0  0
    0.7069   -3.5871    3.6306 C   0  0  0  0  0  0  0  0  0  0  0  0
    0.0125   -2.8732    2.5559 C   0  0  0  0  0  0  0  0  0  0  0  0
    0.0507   -1.4757    2.5145 N   0  0  0  0  0  0  0  0  0  0  0  0
    1.0180   -0.8584    1.6908 C   0  0  0  0  0  0  0  0  0  0  0  0
    0.4968   -0.4742    0.3051 C   0  0  0  0  0  0  0  0  0  0  0  0
    1.4658    0.4859   -0.3703 C   0  0  0  0  0  0  0  0  0  0  0  0
    0.9162    0.9453   -1.7027 C   0  0  0  0  0  0  0  0  0  0  0  0
    1.8020    1.9255   -2.4081 C   0  0  0  0  0  0  0  0  0  0  0  0
    1.1180    2.5441   -3.5910 C   0  0  0  0  0  0  0  0  0  0  0  0
    0.9758    3.7704   -3.7599 O   0  0  0  0  0  0  0  0  0  0  0  0
    0.6101    1.6822   -4.5600 O   0  0  0  0  0  0  0  0  0  0  0  0
    2.3108    2.9839   -1.5639 N   0  0  0  0  0  0  0  0  0  0  0  0
    0.5047   -5.9604    2.9359 C   0  0  0  0  0  0  0  0  0  0  0  0
    0.9510   -7.1888    8.9703 C   0  0  0  0  0  0  0  0  0  0  0  0
  1  2  1  0
  2  3  2  0
  3  4  1  0
  4  5  1  0
  5  6  1  0
  6  7  1  0
  4  8  1  0
  4  9  1  0
  3 10  1  0
 10 11  2  3
 11 12  1  0
 12 13  2  3
 13 14  1  0
 14 15  2  3
 15 16  1  0
 16 17  2  3
 17 18  1  0
 18 19  1  0
 19 20  1  0
 20 21  1  0
 21 22  1  0
 22 23  1  0
 23 24  1  0
 24 25  1  0
 25 26  2  0
 25 27  1  0
 24 28  1  0
 16 29  1  0
 12 30  1  0
  7  2  1  0
M  END
$$$$
