
     RDKit          3D

 30 30  0  0  0  0  0  0  0  0999 V2000
    4.4430   -7.1139   11.5154 C   0  0  0  0  0  0  0  0  0  0  0  0
    4.1191   -6.4579   12.8174 C   0  0  0  0  0  0  0  0  0  0  0  0
    3.2462   -5.4826   12.8936 C   0  0  0  0  0  0  0  0  0  0  0  0
    2.9235   -4.8242   14.2392 C   0  0  0  0  0  0  0  0  0  0  0  0
    3.8095   -5.2459   15.3365 C   0  0  0  0  0  0  0  0  0  0  0  0
    3.9908   -6.7565   15.2430 C   0  0  0  0  0  0  0  0  0  0  0  0
    4.8591   -6.9685   14.0338 C   0  0  0  0  0  0  0  0  0  0  0  0
    3.1783   -3.3323   13.9896 C   0  0  0  0  0  0  0  0  0  0  0  0
    1.4595   -4.9969   14.5274 C   0  0  0  0  0  0  0  0  0  0  0  0
    2.5447   -4.9255   11.7666 C   0  0  0  0  0  0  0  0  0  0  0  0
    1.6534   -5.3164   10.9445 C   0  0  0  0  0  0  0  0  0  0  0  0
    1.2202   -4.4108    9.8645 C   0  0  0  0  0  0  0  0  0  0  0  0
    1.8908   -4.2416    8.7191 C   0  0  0  0  0  0  0  0  0  0  0  0
    1.3844   -4.5694    7.4938 C   0  0  0  0  0  0  0  0  0  0  0  0
    0.9198   -4.8710    6.3702 C   0  0  0  0  0  0  0  0  0  0  0  0
    1.5383   -5.0827    5.0444 C   0  0  0  0  0  0  0  0  0  0  0  0
    1.1396   -4.3479    4.0414 C   0  0  0  0  0  0  0  0  0  0  0  0
    0.1724   -4.6381    2.9798 C   0  0  0  0  0  0  0  0  0  0  0  0
   -0.5461   -3.5921    2.3917 N   0  0  0  0  0  0  0  0  0  0  0  0
   -0.4465   -3.4170    0.9937 C   0  0  0  0  0  0  0  0  0  0  0  0
    0.6713   -2.4640    0.5672 C   0  0  0  0  0  0  0  0  0  0  0  0
    0.3942   -1.0635    1.0949 C   0  0  0  0  0  0  0  0  0  0  0  0
   -0.1819   -0.1888    0.0033 C   0  0  0  0  0  0  0  0  0  0  0  0
    0.3466    1.2124    0.0195 C   0  0  0  0  0  0  0  0  0  0  0  0
    0.7370    1.6769   -1.3523 C   0  0  0  0  0  0  0  0  0  0  0  0
    1.3267    0.9712   -2.1930 O   0  0  0  0  0  0  0  0  0  0  0  0
    0.4158    2.9867   -1.7004 O   0  0  0  0  0  0  0  0  0  0  0  0
   -0.5569    2.1836    0.5957 N   0  0  0  0  0  0  0  0  0  0  0  0
    2.4928   -6.2130    4.9614 C   0  0  0  0  0  0  0  0  0  0  0  0
   -0.0040   -3.6032   10.0854 C   0  0  0  0  0  0  0  0  0  0  0  0
  1  2  1  0
  2  3  2  0
  3  4  1  0
  4  5  1  0
  5  6  1  0
  6  7  1  0
  4  8  1  0
  4  9  1  0
  3 10  1  0
 10 11  2  3
 11 12  1  0
 12 13  2  3
 13 14  1  0
 14 15  2  3
 15 16  1  0
 16 17  2  3
 17 18  1  0
 18 19  1  0
 19 20  1  0
 20 21  1  0
 21 22  1  0
 22 23  1  0
 23 24  1  0
 24 25  1  0
 25 26  2  0
 25 27  1  0
 24 28  1  0
 16 29  1  0
 12 30  1  0
  7  2  1  0
M  END
$$$$
