
     RDKit          3D

 30 30  0  0  0  0  0  0  0  0999 V2000
    1.7930    0.8644   13.1028 C   0  0  0  0  0  0  0  0  0  0  0  0
    0.7136    1.8894   12.9826 C   0  0  0  0  0  0  0  0  0  0  0  0
   -0.2070    1.8077   12.0526 C   0  0  0  0  0  0  0  0  0  0  0  0
   -1.3094    2.8669   11.9472 C   0  0  0  0  0  0  0  0  0  0  0  0
   -1.1042    4.0301   12.8258 C   0  0  0  0  0  0  0  0  0  0  0  0
   -0.6570    3.5180   14.1902 C   0  0  0  0  0  0  0  0  0  0  0  0
    0.7485    3.0274   13.9784 C   0  0  0  0  0  0  0  0  0  0  0  0
   -1.2081    3.3609   10.4985 C   0  0  0  0  0  0  0  0  0  0  0  0
   -2.6445    2.1983   12.1107 C   0  0  0  0  0  0  0  0  0  0  0  0
   -0.2661    0.7747   11.0516 C   0  0  0  0  0  0  0  0  0  0  0  0
    0.5343   -0.0857   10.5596 C   0  0  0  0  0  0  0  0  0  0  0  0
    0.0655   -0.9736    9.4797 C   0  0  0  0  0  0  0  0  0  0  0  0
    0.6616   -1.0754    8.2862 C   0  0  0  0  0  0  0  0  0  0  0  0
    1.0902   -2.2591    7.7564 C   0  0  0  0  0  0  0  0  0  0  0  0
    1.4832   -3.3452    7.2715 C   0  0  0  0  0  0  0  0  0  0  0  0
    1.5425   -3.8737    5.8922 C   0  0  0  0  0  0  0  0  0  0  0  0
    0.4799   -3.7820    5.1389 C   0  0  0  0  0  0  0  0  0  0  0  0
    0.3503   -3.7822    3.6794 C   0  0  0  0  0  0  0  0  0  0  0  0
   -0.9195   -3.7220    3.0962 N   0  0  0  0  0  0  0  0  0  0  0  0
   -1.0692   -2.9921    1.8963 C   0  0  0  0  0  0  0  0  0  0  0  0
   -0.0453   -3.3544    0.8194 C   0  0  0  0  0  0  0  0  0  0  0  0
    0.8131   -2.1427    0.4852 C   0  0  0  0  0  0  0  0  0  0  0  0
    0.8260   -1.8962   -1.0073 C   0  0  0  0  0  0  0  0  0  0  0  0
    0.7705   -0.4451   -1.3734 C   0  0  0  0  0  0  0  0  0  0  0  0
    2.1319    0.1055   -1.6785 C   0  0  0  0  0  0  0  0  0  0  0  0
    2.8221   -0.2280   -2.6608 O   0  0  0  0  0  0  0  0  0  0  0  0
    2.6519    1.0517   -0.7985 O   0  0  0  0  0  0  0  0  0  0  0  0
   -0.1082   -0.1433   -2.4818 N   0  0  0  0  0  0  0  0  0  0  0  0
    2.7986   -4.5726    5.5327 C   0  0  0  0  0  0  0  0  0  0  0  0
   -1.1694   -1.7605    9.7155 C   0  0  0  0  0  0  0  0  0  0  0  0
  1  2  1  0
  2  3  2  0
  3  4  1  0
  4  5  1  0
  5  6  1  0
  6  7  1  0
  4  8  1  0
  4  9  1  0
  3 10  1  0
 10 11  2  3
 11 12  1  0
 12 13  2  3
 13 14  1  0
 14 15  2  3
 15 16  1  0
 16 17  2  3
 17 18  1  0
 18 19  1  0
 19 20  1  0
 20 21  1  0
 21 22  1  0
 22 23  1  0
 23 24  1  0
 24 25  1  0
 25 26  2  0
 25 27  1  0
 24 28  1  0
 16 29  1  0
 12 30  1  0
  7  2  1  0
M  END
$$$$
