
     RDKit          3D

 30 30  0  0  0  0  0  0  0  0999 V2000
    0.7163   -5.4630    9.0988 C   0  0  0  0  0  0  0  0  0  0  0  0
    1.8438   -6.4038    8.8270 C   0  0  0  0  0  0  0  0  0  0  0  0
    2.0240   -6.9312    7.6402 C   0  0  0  0  0  0  0  0  0  0  0  0
    3.1892   -7.8915    7.3789 C   0  0  0  0  0  0  0  0  0  0  0  0
    3.9141   -8.2937    8.5954 C   0  0  0  0  0  0  0  0  0  0  0  0
    4.1186   -7.0518    9.4554 C   0  0  0  0  0  0  0  0  0  0  0  0
    2.7531   -6.7234    9.9928 C   0  0  0  0  0  0  0  0  0  0  0  0
    2.5126   -9.1455    6.8108 C   0  0  0  0  0  0  0  0  0  0  0  0
    4.0634   -7.3151    6.3020 C   0  0  0  0  0  0  0  0  0  0  0  0
    1.1678   -6.7001    6.5062 C   0  0  0  0  0  0  0  0  0  0  0  0
    0.7160   -7.3848    5.5314 C   0  0  0  0  0  0  0  0  0  0  0  0
   -0.1982   -6.7492    4.5647 C   0  0  0  0  0  0  0  0  0  0  0  0
    0.1120   -6.5221    3.2831 C   0  0  0  0  0  0  0  0  0  0  0  0
    0.1053   -5.2802    2.7147 C   0  0  0  0  0  0  0  0  0  0  0  0
    0.0998   -4.1408    2.1943 C   0  0  0  0  0  0  0  0  0  0  0  0
    0.7458   -2.8613    2.5558 C   0  0  0  0  0  0  0  0  0  0  0  0
    0.9424   -2.5923    3.8182 C   0  0  0  0  0  0  0  0  0  0  0  0
    1.1260   -1.3060    4.4955 C   0  0  0  0  0  0  0  0  0  0  0  0
    0.2145   -0.9029    5.4768 N   0  0  0  0  0  0  0  0  0  0  0  0
    0.6654   -0.8187    6.8126 C   0  0  0  0  0  0  0  0  0  0  0  0
    0.1188   -1.9210    7.7213 C   0  0  0  0  0  0  0  0  0  0  0  0
   -0.6222   -1.3070    8.9006 C   0  0  0  0  0  0  0  0  0  0  0  0
    0.3555   -0.7249    9.8974 C   0  0  0  0  0  0  0  0  0  0  0  0
   -0.2954   -0.2249   11.1501 C   0  0  0  0  0  0  0  0  0  0  0  0
    0.2043   -0.9485   12.3652 C   0  0  0  0  0  0  0  0  0  0  0  0
    1.3282   -0.7758   12.8746 O   0  0  0  0  0  0  0  0  0  0  0  0
   -0.6518   -1.8747   12.9562 O   0  0  0  0  0  0  0  0  0  0  0  0
   -0.1527    1.1976   11.3691 N   0  0  0  0  0  0  0  0  0  0  0  0
    1.0097   -1.9407    1.4251 C   0  0  0  0  0  0  0  0  0  0  0  0
   -1.5191   -6.2893    5.0579 C   0  0  0  0  0  0  0  0  0  0  0  0
  1  2  1  0
  2  3  2  0
  3  4  1  0
  4  5  1  0
  5  6  1  0
  6  7  1  0
  4  8  1  0
  4  9  1  0
  3 10  1  0
 10 11  2  3
 11 12  1  0
 12 13  2  3
 13 14  1  0
 14 15  2  3
 15 16  1  0
 16 17  2  3
 17 18  1  0
 18 19  1  0
 19 20  1  0
 20 21  1  0
 21 22  1  0
 22 23  1  0
 23 24  1  0
 24 25  1  0
 25 26  2  0
 25 27  1  0
 24 28  1  0
 16 29  1  0
 12 30  1  0
  7  2  1  0
M  END
$$$$
