
     RDKit          3D

 30 30  0  0  0  0  0  0  0  0999 V2000
    1.5526   -4.1925   11.5380 C   0  0  0  0  0  0  0  0  0  0  0  0
    2.8472   -4.7266   12.0567 C   0  0  0  0  0  0  0  0  0  0  0  0
    3.4530   -5.7345   11.4770 C   0  0  0  0  0  0  0  0  0  0  0  0
    4.7831   -6.2664   12.0211 C   0  0  0  0  0  0  0  0  0  0  0  0
    5.1715   -5.6860   13.3170 C   0  0  0  0  0  0  0  0  0  0  0  0
    4.9084   -4.1856   13.2601 C   0  0  0  0  0  0  0  0  0  0  0  0
    3.4107   -4.0535   13.2885 C   0  0  0  0  0  0  0  0  0  0  0  0
    4.5175   -7.7602   12.2472 C   0  0  0  0  0  0  0  0  0  0  0  0
    5.8307   -6.1442   10.9516 C   0  0  0  0  0  0  0  0  0  0  0  0
    2.9443   -6.4425   10.3313 C   0  0  0  0  0  0  0  0  0  0  0  0
    2.1247   -7.3945   10.1192 C   0  0  0  0  0  0  0  0  0  0  0  0
    1.7590   -7.7370    8.7323 C   0  0  0  0  0  0  0  0  0  0  0  0
    0.5340   -7.5695    8.2210 C   0  0  0  0  0  0  0  0  0  0  0  0
    0.1965   -6.5338    7.3971 C   0  0  0  0  0  0  0  0  0  0  0  0
   -0.1121   -5.5835    6.6415 C   0  0  0  0  0  0  0  0  0  0  0  0
   -0.6375   -5.5192    5.2612 C   0  0  0  0  0  0  0  0  0  0  0  0
    0.1875   -5.2412    4.2881 C   0  0  0  0  0  0  0  0  0  0  0  0
    0.8325   -3.9767    3.9248 C   0  0  0  0  0  0  0  0  0  0  0  0
    0.2066   -3.1146    3.0186 N   0  0  0  0  0  0  0  0  0  0  0  0
    0.9562   -2.6446    1.9176 C   0  0  0  0  0  0  0  0  0  0  0  0
    1.4976   -1.2255    2.0977 C   0  0  0  0  0  0  0  0  0  0  0  0
    1.6736   -0.5569    0.7417 C   0  0  0  0  0  0  0  0  0  0  0  0
    0.3592    0.0133    0.2561 C   0  0  0  0  0  0  0  0  0  0  0  0
    0.4145    1.4826   -0.0287 C   0  0  0  0  0  0  0  0  0  0  0  0
    0.1383    1.7815   -1.4723 C   0  0  0  0  0  0  0  0  0  0  0  0
    0.8832    1.4505   -2.4147 O   0  0  0  0  0  0  0  0  0  0  0  0
   -1.0312    2.4772   -1.7698 O   0  0  0  0  0  0  0  0  0  0  0  0
   -0.4740    2.2815    0.7861 N   0  0  0  0  0  0  0  0  0  0  0  0
   -2.1058   -5.6701    5.1323 C   0  0  0  0  0  0  0  0  0  0  0  0
    2.7994   -8.3508    7.8718 C   0  0  0  0  0  0  0  0  0  0  0  0
  1  2  1  0
  2  3  2  0
  3  4  1  0
  4  5  1  0
  5  6  1  0
  6  7  1  0
  4  8  1  0
  4  9  1  0
  3 10  1  0
 10 11  2  3
 11 12  1  0
 12 13  2  3
 13 14  1  0
 14 15  2  3
 15 16  1  0
 16 17  2  3
 17 18  1  0
 18 19  1  0
 19 20  1  0
 20 21  1  0
 21 22  1  0
 22 23  1  0
 23 24  1  0
 24 25  1  0
 25 26  2  0
 25 27  1  0
 24 28  1  0
 16 29  1  0
 12 30  1  0
  7  2  1  0
M  END
$$$$
