
     RDKit          3D

 30 30  0  0  0  0  0  0  0  0999 V2000
   -2.2587   -5.9073   11.6296 C   0  0  0  0  0  0  0  0  0  0  0  0
   -2.8678   -6.7274   10.5401 C   0  0  0  0  0  0  0  0  0  0  0  0
   -2.2530   -6.9112    9.3968 C   0  0  0  0  0  0  0  0  0  0  0  0
   -2.8919   -7.7594    8.2919 C   0  0  0  0  0  0  0  0  0  0  0  0
   -4.2854   -8.1453    8.5676 C   0  0  0  0  0  0  0  0  0  0  0  0
   -4.3739   -8.5861   10.0242 C   0  0  0  0  0  0  0  0  0  0  0  0
   -4.2310   -7.3193   10.8217 C   0  0  0  0  0  0  0  0  0  0  0  0
   -2.9050   -6.8275    7.0735 C   0  0  0  0  0  0  0  0  0  0  0  0
   -1.9831   -8.9130    7.9765 C   0  0  0  0  0  0  0  0  0  0  0  0
   -0.9773   -6.3381    9.0550 C   0  0  0  0  0  0  0  0  0  0  0  0
    0.2490   -6.6369    9.2282 C   0  0  0  0  0  0  0  0  0  0  0  0
    1.2790   -5.5992    9.0375 C   0  0  0  0  0  0  0  0  0  0  0  0
    1.9507   -5.4162    7.8948 C   0  0  0  0  0  0  0  0  0  0  0  0
    1.4520   -4.7206    6.8305 C   0  0  0  0  0  0  0  0  0  0  0  0
    0.9936   -4.0830    5.8546 C   0  0  0  0  0  0  0  0  0  0  0  0
    0.9682   -2.6462    5.5079 C   0  0  0  0  0  0  0  0  0  0  0  0
    0.6765   -2.3014    4.2828 C   0  0  0  0  0  0  0  0  0  0  0  0
    0.6925   -0.9850    3.6396 C   0  0  0  0  0  0  0  0  0  0  0  0
   -0.0395   -0.7779    2.4659 N   0  0  0  0  0  0  0  0  0  0  0  0
    0.0104    0.4991    1.8645 C   0  0  0  0  0  0  0  0  0  0  0  0
    1.1746    0.6789    0.8889 C   0  0  0  0  0  0  0  0  0  0  0  0
    0.6779    0.5623   -0.5451 C   0  0  0  0  0  0  0  0  0  0  0  0
    1.4796    1.4619   -1.4597 C   0  0  0  0  0  0  0  0  0  0  0  0
    2.1887    0.7232   -2.5526 C   0  0  0  0  0  0  0  0  0  0  0  0
    2.7184    1.6544   -3.6024 C   0  0  0  0  0  0  0  0  0  0  0  0
    2.0146    2.2212   -4.4602 O   0  0  0  0  0  0  0  0  0  0  0  0
    4.0903    1.8946   -3.6120 O   0  0  0  0  0  0  0  0  0  0  0  0
    3.2707   -0.1213   -2.0965 N   0  0  0  0  0  0  0  0  0  0  0  0
    1.3969   -1.7244    6.5859 C   0  0  0  0  0  0  0  0  0  0  0  0
    1.6245   -4.7429   10.1981 C   0  0  0  0  0  0  0  0  0  0  0  0
  1  2  1  0
  2  3  2  0
  3  4  1  0
  4  5  1  0
  5  6  1  0
  6  7  1  0
  4  8  1  0
  4  9  1  0
  3 10  1  0
 10 11  2  3
 11 12  1  0
 12 13  2  3
 13 14  1  0
 14 15  2  3
 15 16  1  0
 16 17  2  3
 17 18  1  0
 18 19  1  0
 19 20  1  0
 20 21  1  0
 21 22  1  0
 22 23  1  0
 23 24  1  0
 24 25  1  0
 25 26  2  0
 25 27  1  0
 24 28  1  0
 16 29  1  0
 12 30  1  0
  7  2  1  0
M  END
$$$$
