
     RDKit          3D

 30 30  0  0  0  0  0  0  0  0999 V2000
    0.4038   -5.5468    9.1428 C   0  0  0  0  0  0  0  0  0  0  0  0
   -0.6881   -6.3993    8.5847 C   0  0  0  0  0  0  0  0  0  0  0  0
   -0.7155   -6.7331    7.3172 C   0  0  0  0  0  0  0  0  0  0  0  0
   -1.8419   -7.6122    6.7633 C   0  0  0  0  0  0  0  0  0  0  0  0
   -2.9373   -7.8486    7.7177 C   0  0  0  0  0  0  0  0  0  0  0  0
   -2.3206   -8.1546    9.0778 C   0  0  0  0  0  0  0  0  0  0  0  0
   -1.7616   -6.8423    9.5539 C   0  0  0  0  0  0  0  0  0  0  0  0
   -2.4135   -6.7895    5.6015 C   0  0  0  0  0  0  0  0  0  0  0  0
   -1.2444   -8.8642    6.1874 C   0  0  0  0  0  0  0  0  0  0  0  0
    0.2516   -6.3061    6.3399 C   0  0  0  0  0  0  0  0  0  0  0  0
    0.7713   -5.2029    5.9713 C   0  0  0  0  0  0  0  0  0  0  0  0
    1.5626   -5.1572    4.7278 C   0  0  0  0  0  0  0  0  0  0  0  0
    1.1132   -4.6449    3.5763 C   0  0  0  0  0  0  0  0  0  0  0  0
    1.4395   -3.3964    3.1288 C   0  0  0  0  0  0  0  0  0  0  0  0
    1.7390   -2.2512    2.7192 C   0  0  0  0  0  0  0  0  0  0  0  0
    0.9622   -1.0061    2.5411 C   0  0  0  0  0  0  0  0  0  0  0  0
    0.0674   -0.6910    3.4383 C   0  0  0  0  0  0  0  0  0  0  0  0
    0.2320   -0.1945    4.8070 C   0  0  0  0  0  0  0  0  0  0  0  0
   -0.8945    0.1644    5.5543 N   0  0  0  0  0  0  0  0  0  0  0  0
   -0.9974   -0.3151    6.8788 C   0  0  0  0  0  0  0  0  0  0  0  0
    0.3095   -0.2358    7.6694 C   0  0  0  0  0  0  0  0  0  0  0  0
    0.2540    0.9214    8.6566 C   0  0  0  0  0  0  0  0  0  0  0  0
    1.3092    0.7567    9.7280 C   0  0  0  0  0  0  0  0  0  0  0  0
    0.7430    0.6160   11.1073 C   0  0  0  0  0  0  0  0  0  0  0  0
   -0.0195    1.8385   11.5244 C   0  0  0  0  0  0  0  0  0  0  0  0
    0.1121    2.4089   12.6243 O   0  0  0  0  0  0  0  0  0  0  0  0
   -0.9346    2.3636   10.6150 O   0  0  0  0  0  0  0  0  0  0  0  0
   -0.1057   -0.5411   11.2880 N   0  0  0  0  0  0  0  0  0  0  0  0
    1.2057   -0.2810    1.2721 C   0  0  0  0  0  0  0  0  0  0  0  0
    2.9168   -5.7617    4.7445 C   0  0  0  0  0  0  0  0  0  0  0  0
  1  2  1  0
  2  3  2  0
  3  4  1  0
  4  5  1  0
  5  6  1  0
  6  7  1  0
  4  8  1  0
  4  9  1  0
  3 10  1  0
 10 11  2  3
 11 12  1  0
 12 13  2  3
 13 14  1  0
 14 15  2  3
 15 16  1  0
 16 17  2  3
 17 18  1  0
 18 19  1  0
 19 20  1  0
 20 21  1  0
 21 22  1  0
 22 23  1  0
 23 24  1  0
 24 25  1  0
 25 26  2  0
 25 27  1  0
 24 28  1  0
 16 29  1  0
 12 30  1  0
  7  2  1  0
M  END
$$$$
