
     RDKit          3D

 30 30  0  0  0  0  0  0  0  0999 V2000
    1.2140   -4.6148    4.9664 C   0  0  0  0  0  0  0  0  0  0  0  0
   -0.0571   -5.3099    4.6041 C   0  0  0  0  0  0  0  0  0  0  0  0
   -0.7594   -5.9619    5.4989 C   0  0  0  0  0  0  0  0  0  0  0  0
   -2.0637   -6.6658    5.1094 C   0  0  0  0  0  0  0  0  0  0  0  0
   -2.3116   -6.7010    3.6588 C   0  0  0  0  0  0  0  0  0  0  0  0
   -1.9794   -5.3264    3.0896 C   0  0  0  0  0  0  0  0  0  0  0  0
   -0.4801   -5.2323    3.1539 C   0  0  0  0  0  0  0  0  0  0  0  0
   -1.8550   -8.1122    5.5757 C   0  0  0  0  0  0  0  0  0  0  0  0
   -3.1906   -6.0834    5.9138 C   0  0  0  0  0  0  0  0  0  0  0  0
   -0.3857   -6.1078    6.8815 C   0  0  0  0  0  0  0  0  0  0  0  0
    0.5847   -6.6186    7.5301 C   0  0  0  0  0  0  0  0  0  0  0  0
    0.5852   -6.5485    9.0030 C   0  0  0  0  0  0  0  0  0  0  0  0
    1.2696   -7.3873    9.7893 C   0  0  0  0  0  0  0  0  0  0  0  0
    2.3660   -7.0156   10.5139 C   0  0  0  0  0  0  0  0  0  0  0  0
    3.3718   -6.6739   11.1778 C   0  0  0  0  0  0  0  0  0  0  0  0
    4.0296   -5.3721   11.4186 C   0  0  0  0  0  0  0  0  0  0  0  0
    3.2945   -4.3548   11.7784 C   0  0  0  0  0  0  0  0  0  0  0  0
    3.6307   -3.1838   12.5924 C   0  0  0  0  0  0  0  0  0  0  0  0
    2.6512   -2.2224   12.8617 N   0  0  0  0  0  0  0  0  0  0  0  0
    3.0587   -0.8785   13.0132 C   0  0  0  0  0  0  0  0  0  0  0  0
    2.8594   -0.0260   11.7590 C   0  0  0  0  0  0  0  0  0  0  0  0
    1.3923    0.3516   11.6111 C   0  0  0  0  0  0  0  0  0  0  0  0
    1.1781    1.1690   10.3563 C   0  0  0  0  0  0  0  0  0  0  0  0
   -0.2449    1.5897   10.1533 C   0  0  0  0  0  0  0  0  0  0  0  0
   -0.4827    2.9953   10.6196 C   0  0  0  0  0  0  0  0  0  0  0  0
   -1.1281    3.2981   11.6415 O   0  0  0  0  0  0  0  0  0  0  0  0
    0.0570    4.0246    9.8520 O   0  0  0  0  0  0  0  0  0  0  0  0
   -0.7129    1.4704    8.7901 N   0  0  0  0  0  0  0  0  0  0  0  0
    5.4781   -5.3252   11.1105 C   0  0  0  0  0  0  0  0  0  0  0  0
   -0.2643   -5.5186    9.6489 C   0  0  0  0  0  0  0  0  0  0  0  0
  1  2  1  0
  2  3  2  0
  3  4  1  0
  4  5  1  0
  5  6  1  0
  6  7  1  0
  4  8  1  0
  4  9  1  0
  3 10  1  0
 10 11  2  3
 11 12  1  0
 12 13  2  3
 13 14  1  0
 14 15  2  3
 15 16  1  0
 16 17  2  3
 17 18  1  0
 18 19  1  0
 19 20  1  0
 20 21  1  0
 21 22  1  0
 22 23  1  0
 23 24  1  0
 24 25  1  0
 25 26  2  0
 25 27  1  0
 24 28  1  0
 16 29  1  0
 12 30  1  0
  7  2  1  0
M  END
$$$$
