
     RDKit          3D

 30 30  0  0  0  0  0  0  0  0999 V2000
    1.6538   -3.5643    9.0299 C   0  0  0  0  0  0  0  0  0  0  0  0
    2.3095   -3.7992   10.3510 C   0  0  0  0  0  0  0  0  0  0  0  0
    3.0244   -4.8744   10.5784 C   0  0  0  0  0  0  0  0  0  0  0  0
    3.6933   -5.0964   11.9392 C   0  0  0  0  0  0  0  0  0  0  0  0
    3.2895   -4.1235   12.9674 C   0  0  0  0  0  0  0  0  0  0  0  0
    3.2828   -2.7387   12.3301 C   0  0  0  0  0  0  0  0  0  0  0  0
    2.0934   -2.7412   11.4102 C   0  0  0  0  0  0  0  0  0  0  0  0
    3.1802   -6.4728   12.3814 C   0  0  0  0  0  0  0  0  0  0  0  0
    5.1783   -5.2035   11.7403 C   0  0  0  0  0  0  0  0  0  0  0  0
    3.2286   -5.9350    9.6265 C   0  0  0  0  0  0  0  0  0  0  0  0
    2.5626   -6.4755    8.6845 C   0  0  0  0  0  0  0  0  0  0  0  0
    3.1434   -7.6154    7.9513 C   0  0  0  0  0  0  0  0  0  0  0  0
    2.5338   -8.2373    6.9354 C   0  0  0  0  0  0  0  0  0  0  0  0
    1.5982   -7.6407    6.1391 C   0  0  0  0  0  0  0  0  0  0  0  0
    0.7393   -7.0937    5.4095 C   0  0  0  0  0  0  0  0  0  0  0  0
   -0.6652   -6.6891    5.6308 C   0  0  0  0  0  0  0  0  0  0  0  0
   -0.9646   -5.4186    5.5987 C   0  0  0  0  0  0  0  0  0  0  0  0
   -0.8193   -4.4378    4.5198 C   0  0  0  0  0  0  0  0  0  0  0  0
   -1.3905   -3.1684    4.6554 N   0  0  0  0  0  0  0  0  0  0  0  0
   -0.7439   -2.2311    5.4911 C   0  0  0  0  0  0  0  0  0  0  0  0
    0.2499   -1.3294    4.7572 C   0  0  0  0  0  0  0  0  0  0  0  0
    0.2191   -1.6236    3.2641 C   0  0  0  0  0  0  0  0  0  0  0  0
    0.2734   -0.3383    2.4681 C   0  0  0  0  0  0  0  0  0  0  0  0
    0.1577   -0.5462    0.9895 C   0  0  0  0  0  0  0  0  0  0  0  0
    0.0735    0.7551    0.2484 C   0  0  0  0  0  0  0  0  0  0  0  0
    0.2215    1.8752    0.7739 O   0  0  0  0  0  0  0  0  0  0  0  0
   -0.1892    0.6980   -1.1182 O   0  0  0  0  0  0  0  0  0  0  0  0
    1.2229   -1.3371    0.4136 N   0  0  0  0  0  0  0  0  0  0  0  0
   -1.5945   -7.7869    5.9867 C   0  0  0  0  0  0  0  0  0  0  0  0
    4.4580   -8.1332    8.4021 C   0  0  0  0  0  0  0  0  0  0  0  0
  1  2  1  0
  2  3  2  0
  3  4  1  0
  4  5  1  0
  5  6  1  0
  6  7  1  0
  4  8  1  0
  4  9  1  0
  3 10  1  0
 10 11  2  3
 11 12  1  0
 12 13  2  3
 13 14  1  0
 14 15  2  3
 15 16  1  0
 16 17  2  3
 17 18  1  0
 18 19  1  0
 19 20  1  0
 20 21  1  0
 21 22  1  0
 22 23  1  0
 23 24  1  0
 24 25  1  0
 25 26  2  0
 25 27  1  0
 24 28  1  0
 16 29  1  0
 12 30  1  0
  7  2  1  0
M  END
$$$$
