
     RDKit          3D

 30 30  0  0  0  0  0  0  0  0999 V2000
    3.4804   -5.9975   12.5202 C   0  0  0  0  0  0  0  0  0  0  0  0
    3.8658   -7.0956   11.5843 C   0  0  0  0  0  0  0  0  0  0  0  0
    3.5619   -7.0467   10.3099 C   0  0  0  0  0  0  0  0  0  0  0  0
    3.9695   -8.1812    9.3637 C   0  0  0  0  0  0  0  0  0  0  0  0
    4.5230   -9.3598   10.0504 C   0  0  0  0  0  0  0  0  0  0  0  0
    5.4870   -8.8705   11.1251 C   0  0  0  0  0  0  0  0  0  0  0  0
    4.6098   -8.2668   12.1867 C   0  0  0  0  0  0  0  0  0  0  0  0
    2.6489   -8.6077    8.7100 C   0  0  0  0  0  0  0  0  0  0  0  0
    4.8545   -7.6227    8.2863 C   0  0  0  0  0  0  0  0  0  0  0  0
    2.8184   -5.9818    9.6887 C   0  0  0  0  0  0  0  0  0  0  0  0
    1.5965   -5.7365    9.4243 C   0  0  0  0  0  0  0  0  0  0  0  0
    1.2203   -4.4026    8.9208 C   0  0  0  0  0  0  0  0  0  0  0  0
    1.5536   -3.9412    7.7099 C   0  0  0  0  0  0  0  0  0  0  0  0
    0.7842   -4.1229    6.5962 C   0  0  0  0  0  0  0  0  0  0  0  0
    0.0791   -4.2903    5.5744 C   0  0  0  0  0  0  0  0  0  0  0  0
   -0.4379   -3.3684    4.5409 C   0  0  0  0  0  0  0  0  0  0  0  0
   -0.3355   -2.0820    4.7396 C   0  0  0  0  0  0  0  0  0  0  0  0
   -1.3753   -1.0610    4.8916 C   0  0  0  0  0  0  0  0  0  0  0  0
   -1.0115    0.2741    5.0952 N   0  0  0  0  0  0  0  0  0  0  0  0
   -0.0215    0.5563    6.0622 C   0  0  0  0  0  0  0  0  0  0  0  0
   -0.5728    0.7408    7.4770 C   0  0  0  0  0  0  0  0  0  0  0  0
   -0.4489    2.1974    7.9007 C   0  0  0  0  0  0  0  0  0  0  0  0
   -1.2225    2.4472    9.1764 C   0  0  0  0  0  0  0  0  0  0  0  0
   -0.6635    3.5625   10.0052 C   0  0  0  0  0  0  0  0  0  0  0  0
   -1.3679    4.8602    9.7415 C   0  0  0  0  0  0  0  0  0  0  0  0
   -0.7987    5.9108    9.3882 O   0  0  0  0  0  0  0  0  0  0  0  0
   -2.7508    4.8832    9.9061 O   0  0  0  0  0  0  0  0  0  0  0  0
   -0.6771    3.3113   11.4294 N   0  0  0  0  0  0  0  0  0  0  0  0
   -1.1388   -4.0141    3.4064 C   0  0  0  0  0  0  0  0  0  0  0  0
    0.4724   -3.5026    9.8320 C   0  0  0  0  0  0  0  0  0  0  0  0
  1  2  1  0
  2  3  2  0
  3  4  1  0
  4  5  1  0
  5  6  1  0
  6  7  1  0
  4  8  1  0
  4  9  1  0
  3 10  1  0
 10 11  2  3
 11 12  1  0
 12 13  2  3
 13 14  1  0
 14 15  2  3
 15 16  1  0
 16 17  2  3
 17 18  1  0
 18 19  1  0
 19 20  1  0
 20 21  1  0
 21 22  1  0
 22 23  1  0
 23 24  1  0
 24 25  1  0
 25 26  2  0
 25 27  1  0
 24 28  1  0
 16 29  1  0
 12 30  1  0
  7  2  1  0
M  END
$$$$
