
     RDKit          3D

 30 30  0  0  0  0  0  0  0  0999 V2000
    1.0617   -7.7212   10.0835 C   0  0  0  0  0  0  0  0  0  0  0  0
   -0.3388   -8.2397   10.0825 C   0  0  0  0  0  0  0  0  0  0  0  0
   -1.0324   -8.3349    8.9740 C   0  0  0  0  0  0  0  0  0  0  0  0
   -2.4670   -8.8734    8.9918 C   0  0  0  0  0  0  0  0  0  0  0  0
   -3.0161   -9.0612   10.3446 C   0  0  0  0  0  0  0  0  0  0  0  0
   -1.9392   -9.7122   11.2050 C   0  0  0  0  0  0  0  0  0  0  0  0
   -0.9144   -8.6339   11.4247 C   0  0  0  0  0  0  0  0  0  0  0  0
   -3.2841   -7.7666    8.3132 C   0  0  0  0  0  0  0  0  0  0  0  0
   -2.5395  -10.0954    8.1214 C   0  0  0  0  0  0  0  0  0  0  0  0
   -0.5551   -7.9347    7.6760 C   0  0  0  0  0  0  0  0  0  0  0  0
   -0.5499   -6.8683    6.9791 C   0  0  0  0  0  0  0  0  0  0  0  0
    0.2323   -6.8259    5.7298 C   0  0  0  0  0  0  0  0  0  0  0  0
    0.9911   -5.7878    5.3598 C   0  0  0  0  0  0  0  0  0  0  0  0
    0.5701   -4.4895    5.4139 C   0  0  0  0  0  0  0  0  0  0  0  0
    0.1841   -3.2989    5.4625 C   0  0  0  0  0  0  0  0  0  0  0  0
    0.4052   -2.1280    4.5876 C   0  0  0  0  0  0  0  0  0  0  0  0
    0.3896   -0.9356    5.1192 C   0  0  0  0  0  0  0  0  0  0  0  0
    0.6008    0.3782    4.5057 C   0  0  0  0  0  0  0  0  0  0  0  0
    0.5960    1.5256    5.3055 N   0  0  0  0  0  0  0  0  0  0  0  0
   -0.2249    1.5348    6.4548 C   0  0  0  0  0  0  0  0  0  0  0  0
   -0.1322    2.8247    7.2715 C   0  0  0  0  0  0  0  0  0  0  0  0
    0.6082    2.5656    8.5759 C   0  0  0  0  0  0  0  0  0  0  0  0
   -0.3543    2.1156    9.6528 C   0  0  0  0  0  0  0  0  0  0  0  0
    0.3134    1.7939   10.9542 C   0  0  0  0  0  0  0  0  0  0  0  0
   -0.6608    1.7896   12.0946 C   0  0  0  0  0  0  0  0  0  0  0  0
   -1.2740    2.7956   12.5002 O   0  0  0  0  0  0  0  0  0  0  0  0
   -0.8882    0.5754   12.7380 O   0  0  0  0  0  0  0  0  0  0  0  0
    1.0357    0.5409   10.9597 N   0  0  0  0  0  0  0  0  0  0  0  0
    0.5134   -2.4273    3.1405 C   0  0  0  0  0  0  0  0  0  0  0  0
    0.1293   -7.9824    4.8070 C   0  0  0  0  0  0  0  0  0  0  0  0
  1  2  1  0
  2  3  2  0
  3  4  1  0
  4  5  1  0
  5  6  1  0
  6  7  1  0
  4  8  1  0
  4  9  1  0
  3 10  1  0
 10 11  2  3
 11 12  1  0
 12 13  2  3
 13 14  1  0
 14 15  2  3
 15 16  1  0
 16 17  2  3
 17 18  1  0
 18 19  1  0
 19 20  1  0
 20 21  1  0
 21 22  1  0
 22 23  1  0
 23 24  1  0
 24 25  1  0
 25 26  2  0
 25 27  1  0
 24 28  1  0
 16 29  1  0
 12 30  1  0
  7  2  1  0
M  END
$$$$
