
     RDKit          3D

 30 30  0  0  0  0  0  0  0  0999 V2000
    1.5240   -4.5836   10.6023 C   0  0  0  0  0  0  0  0  0  0  0  0
    0.1459   -5.0774   10.8978 C   0  0  0  0  0  0  0  0  0  0  0  0
   -0.3909   -6.0581   10.2130 C   0  0  0  0  0  0  0  0  0  0  0  0
   -1.8050   -6.5544   10.5333 C   0  0  0  0  0  0  0  0  0  0  0  0
   -2.5270   -5.7123   11.5011 C   0  0  0  0  0  0  0  0  0  0  0  0
   -1.5634   -5.3551   12.6270 C   0  0  0  0  0  0  0  0  0  0  0  0
   -0.5971   -4.3790   12.0150 C   0  0  0  0  0  0  0  0  0  0  0  0
   -2.5437   -6.4515    9.1929 C   0  0  0  0  0  0  0  0  0  0  0  0
   -1.7379   -8.0072   10.9090 C   0  0  0  0  0  0  0  0  0  0  0  0
    0.2486   -6.7304    9.1123 C   0  0  0  0  0  0  0  0  0  0  0  0
    0.9076   -6.3911    8.0761 C   0  0  0  0  0  0  0  0  0  0  0  0
    1.3712   -7.4334    7.1417 C   0  0  0  0  0  0  0  0  0  0  0  0
    1.9948   -7.1755    5.9864 C   0  0  0  0  0  0  0  0  0  0  0  0
    1.3735   -6.6270    4.9007 C   0  0  0  0  0  0  0  0  0  0  0  0
    0.8032   -6.1249    3.9049 C   0  0  0  0  0  0  0  0  0  0  0  0
    0.5151   -4.7325    3.5004 C   0  0  0  0  0  0  0  0  0  0  0  0
    1.5085   -3.9652    3.1412 C   0  0  0  0  0  0  0  0  0  0  0  0
    1.5421   -2.8297    2.2158 C   0  0  0  0  0  0  0  0  0  0  0  0
    1.8068   -3.0480    0.8599 N   0  0  0  0  0  0  0  0  0  0  0  0
    0.8049   -2.7144   -0.0781 C   0  0  0  0  0  0  0  0  0  0  0  0
    1.0307   -1.3712   -0.7739 C   0  0  0  0  0  0  0  0  0  0  0  0
    0.1238   -0.3095   -0.1680 C   0  0  0  0  0  0  0  0  0  0  0  0
    0.0831    0.9198   -1.0488 C   0  0  0  0  0  0  0  0  0  0  0  0
    0.1300    2.2055   -0.2821 C   0  0  0  0  0  0  0  0  0  0  0  0
    0.5006    3.3645   -1.1592 C   0  0  0  0  0  0  0  0  0  0  0  0
    1.6541    3.8222   -1.2706 O   0  0  0  0  0  0  0  0  0  0  0  0
   -0.5198    3.9635   -1.8939 O   0  0  0  0  0  0  0  0  0  0  0  0
   -1.0948    2.5283    0.4159 N   0  0  0  0  0  0  0  0  0  0  0  0
   -0.8950   -4.3045    3.6550 C   0  0  0  0  0  0  0  0  0  0  0  0
    1.0820   -8.8479    7.4811 C   0  0  0  0  0  0  0  0  0  0  0  0
  1  2  1  0
  2  3  2  0
  3  4  1  0
  4  5  1  0
  5  6  1  0
  6  7  1  0
  4  8  1  0
  4  9  1  0
  3 10  1  0
 10 11  2  3
 11 12  1  0
 12 13  2  3
 13 14  1  0
 14 15  2  3
 15 16  1  0
 16 17  2  3
 17 18  1  0
 18 19  1  0
 19 20  1  0
 20 21  1  0
 21 22  1  0
 22 23  1  0
 23 24  1  0
 24 25  1  0
 25 26  2  0
 25 27  1  0
 24 28  1  0
 16 29  1  0
 12 30  1  0
  7  2  1  0
M  END
$$$$
