
     RDKit          3D

 30 30  0  0  0  0  0  0  0  0999 V2000
    1.9390   -2.9889   12.5722 C   0  0  0  0  0  0  0  0  0  0  0  0
    2.8666   -4.0608   13.0420 C   0  0  0  0  0  0  0  0  0  0  0  0
    3.1464   -5.1001   12.2933 C   0  0  0  0  0  0  0  0  0  0  0  0
    4.1040   -6.1882   12.7906 C   0  0  0  0  0  0  0  0  0  0  0  0
    4.4848   -6.0456   14.2054 C   0  0  0  0  0  0  0  0  0  0  0  0
    4.7892   -4.5749   14.4664 C   0  0  0  0  0  0  0  0  0  0  0  0
    3.4514   -3.8893   14.4264 C   0  0  0  0  0  0  0  0  0  0  0  0
    3.2902   -7.4820   12.6614 C   0  0  0  0  0  0  0  0  0  0  0  0
    5.2674   -6.2826   11.8451 C   0  0  0  0  0  0  0  0  0  0  0  0
    2.5874   -5.3399   10.9885 C   0  0  0  0  0  0  0  0  0  0  0  0
    1.9907   -6.2981   10.3979 C   0  0  0  0  0  0  0  0  0  0  0  0
    1.5390   -6.1190    9.0057 C   0  0  0  0  0  0  0  0  0  0  0  0
    2.2188   -6.5556    7.9391 C   0  0  0  0  0  0  0  0  0  0  0  0
    1.6946   -6.6022    6.6788 C   0  0  0  0  0  0  0  0  0  0  0  0
    1.2146   -6.6456    5.5225 C   0  0  0  0  0  0  0  0  0  0  0  0
    0.0065   -6.0568    4.9068 C   0  0  0  0  0  0  0  0  0  0  0  0
    0.1490   -5.2620    3.8807 C   0  0  0  0  0  0  0  0  0  0  0  0
    0.7953   -3.9508    3.7804 C   0  0  0  0  0  0  0  0  0  0  0  0
    0.7969   -3.2705    2.5584 N   0  0  0  0  0  0  0  0  0  0  0  0
   -0.4341   -2.7892    2.0606 C   0  0  0  0  0  0  0  0  0  0  0  0
   -0.4663   -1.2749    1.8477 C   0  0  0  0  0  0  0  0  0  0  0  0
    0.6020   -0.8651    0.8439 C   0  0  0  0  0  0  0  0  0  0  0  0
    0.0782   -0.9895   -0.5698 C   0  0  0  0  0  0  0  0  0  0  0  0
   -0.2163    0.3292   -1.2157 C   0  0  0  0  0  0  0  0  0  0  0  0
    0.3840    1.4712   -0.4506 C   0  0  0  0  0  0  0  0  0  0  0  0
    0.2461    1.6469    0.7752 O   0  0  0  0  0  0  0  0  0  0  0  0
    1.1440    2.3927   -1.1670 O   0  0  0  0  0  0  0  0  0  0  0  0
    0.2071    0.4249   -2.5953 N   0  0  0  0  0  0  0  0  0  0  0  0
   -1.2682   -6.3468    5.6043 C   0  0  0  0  0  0  0  0  0  0  0  0
    0.2827   -5.3652    8.7753 C   0  0  0  0  0  0  0  0  0  0  0  0
  1  2  1  0
  2  3  2  0
  3  4  1  0
  4  5  1  0
  5  6  1  0
  6  7  1  0
  4  8  1  0
  4  9  1  0
  3 10  1  0
 10 11  2  3
 11 12  1  0
 12 13  2  3
 13 14  1  0
 14 15  2  3
 15 16  1  0
 16 17  2  3
 17 18  1  0
 18 19  1  0
 19 20  1  0
 20 21  1  0
 21 22  1  0
 22 23  1  0
 23 24  1  0
 24 25  1  0
 25 26  2  0
 25 27  1  0
 24 28  1  0
 16 29  1  0
 12 30  1  0
  7  2  1  0
M  END
$$$$
