
     RDKit          3D

 30 30  0  0  0  0  0  0  0  0999 V2000
   -3.8018   -3.6865   11.3870 C   0  0  0  0  0  0  0  0  0  0  0  0
   -2.6401   -2.7743   11.6073 C   0  0  0  0  0  0  0  0  0  0  0  0
   -1.5193   -2.9211   10.9431 C   0  0  0  0  0  0  0  0  0  0  0  0
   -0.3391   -1.9726   11.1796 C   0  0  0  0  0  0  0  0  0  0  0  0
   -0.5251   -1.0633   12.3222 C   0  0  0  0  0  0  0  0  0  0  0  0
   -1.9488   -0.5213   12.2671 C   0  0  0  0  0  0  0  0  0  0  0  0
   -2.8219   -1.6865   12.6426 C   0  0  0  0  0  0  0  0  0  0  0  0
    0.8245   -2.9113   11.5233 C   0  0  0  0  0  0  0  0  0  0  0  0
   -0.0038   -1.2810    9.8890 C   0  0  0  0  0  0  0  0  0  0  0  0
   -1.2720   -3.9621    9.9799 C   0  0  0  0  0  0  0  0  0  0  0  0
   -0.2783   -4.3783    9.2999 C   0  0  0  0  0  0  0  0  0  0  0  0
   -0.4887   -5.4184    8.2760 C   0  0  0  0  0  0  0  0  0  0  0  0
    0.3976   -5.7114    7.3175 C   0  0  0  0  0  0  0  0  0  0  0  0
    0.4349   -5.0799    6.1070 C   0  0  0  0  0  0  0  0  0  0  0  0
    0.4694   -4.4998    4.9973 C   0  0  0  0  0  0  0  0  0  0  0  0
    0.8803   -4.9302    3.6440 C   0  0  0  0  0  0  0  0  0  0  0  0
    1.2308   -4.0204    2.7756 C   0  0  0  0  0  0  0  0  0  0  0  0
    1.0615   -3.9842    1.3207 C   0  0  0  0  0  0  0  0  0  0  0  0
   -0.2227   -4.0490    0.7704 N   0  0  0  0  0  0  0  0  0  0  0  0
   -0.6308   -3.0110   -0.0963 C   0  0  0  0  0  0  0  0  0  0  0  0
    0.1623   -1.7144    0.0741 C   0  0  0  0  0  0  0  0  0  0  0  0
    0.4927   -1.1206   -1.2879 C   0  0  0  0  0  0  0  0  0  0  0  0
    0.7182    0.3711   -1.1765 C   0  0  0  0  0  0  0  0  0  0  0  0
    2.0742    0.8063   -1.6401 C   0  0  0  0  0  0  0  0  0  0  0  0
    1.9906    1.9264   -2.6343 C   0  0  0  0  0  0  0  0  0  0  0  0
    2.0231    1.7740   -3.8705 O   0  0  0  0  0  0  0  0  0  0  0  0
    1.8698    3.2201   -2.1327 O   0  0  0  0  0  0  0  0  0  0  0  0
    2.9700    1.2005   -0.5753 N   0  0  0  0  0  0  0  0  0  0  0  0
    0.7416   -6.3795    3.3685 C   0  0  0  0  0  0  0  0  0  0  0  0
   -1.7815   -6.1452    8.2807 C   0  0  0  0  0  0  0  0  0  0  0  0
  1  2  1  0
  2  3  2  0
  3  4  1  0
  4  5  1  0
  5  6  1  0
  6  7  1  0
  4  8  1  0
  4  9  1  0
  3 10  1  0
 10 11  2  3
 11 12  1  0
 12 13  2  3
 13 14  1  0
 14 15  2  3
 15 16  1  0
 16 17  2  3
 17 18  1  0
 18 19  1  0
 19 20  1  0
 20 21  1  0
 21 22  1  0
 22 23  1  0
 23 24  1  0
 24 25  1  0
 25 26  2  0
 25 27  1  0
 24 28  1  0
 16 29  1  0
 12 30  1  0
  7  2  1  0
M  END
$$$$
