
     RDKit          3D

 30 30  0  0  0  0  0  0  0  0999 V2000
    0.1446    0.9934   11.5667 C   0  0  0  0  0  0  0  0  0  0  0  0
    1.2951    0.0477   11.6765 C   0  0  0  0  0  0  0  0  0  0  0  0
    1.7848   -0.5593   10.6226 C   0  0  0  0  0  0  0  0  0  0  0  0
    2.9687   -1.5234   10.7540 C   0  0  0  0  0  0  0  0  0  0  0  0
    3.3339   -1.8322   12.1462 C   0  0  0  0  0  0  0  0  0  0  0  0
    3.3092   -0.5313   12.9403 C   0  0  0  0  0  0  0  0  0  0  0  0
    1.8523   -0.1804   13.0641 C   0  0  0  0  0  0  0  0  0  0  0  0
    2.4597   -2.8209   10.1133 C   0  0  0  0  0  0  0  0  0  0  0  0
    4.1067   -1.0146    9.9160 C   0  0  0  0  0  0  0  0  0  0  0  0
    1.2694   -0.4167    9.2859 C   0  0  0  0  0  0  0  0  0  0  0  0
    0.2716   -0.8550    8.6260 C   0  0  0  0  0  0  0  0  0  0  0  0
   -0.1338   -0.1657    7.3871 C   0  0  0  0  0  0  0  0  0  0  0  0
    0.6086   -0.1334    6.2744 C   0  0  0  0  0  0  0  0  0  0  0  0
    1.2206   -1.2335    5.7446 C   0  0  0  0  0  0  0  0  0  0  0  0
    1.7812   -2.2424    5.2579 C   0  0  0  0  0  0  0  0  0  0  0  0
    1.2753   -3.4354    4.5464 C   0  0  0  0  0  0  0  0  0  0  0  0
    0.8840   -4.4650    5.2475 C   0  0  0  0  0  0  0  0  0  0  0  0
    0.1804   -5.6815    4.8327 C   0  0  0  0  0  0  0  0  0  0  0  0
   -0.1139   -6.6688    5.7786 N   0  0  0  0  0  0  0  0  0  0  0  0
   -0.7462   -7.8513    5.3349 C   0  0  0  0  0  0  0  0  0  0  0  0
   -1.9775   -8.2401    6.1547 C   0  0  0  0  0  0  0  0  0  0  0  0
   -2.1775   -7.2544    7.2972 C   0  0  0  0  0  0  0  0  0  0  0  0
   -3.5942   -7.3304    7.8223 C   0  0  0  0  0  0  0  0  0  0  0  0
   -3.7260   -6.8975    9.2500 C   0  0  0  0  0  0  0  0  0  0  0  0
   -5.0839   -6.3288    9.5371 C   0  0  0  0  0  0  0  0  0  0  0  0
   -5.3808   -5.1240    9.4232 O   0  0  0  0  0  0  0  0  0  0  0  0
   -6.0726   -7.2140    9.9599 O   0  0  0  0  0  0  0  0  0  0  0  0
   -3.4474   -7.9370   10.2161 N   0  0  0  0  0  0  0  0  0  0  0  0
    1.3711   -3.3824    3.0688 C   0  0  0  0  0  0  0  0  0  0  0  0
   -1.4172    0.5777    7.3949 C   0  0  0  0  0  0  0  0  0  0  0  0
  1  2  1  0
  2  3  2  0
  3  4  1  0
  4  5  1  0
  5  6  1  0
  6  7  1  0
  4  8  1  0
  4  9  1  0
  3 10  1  0
 10 11  2  3
 11 12  1  0
 12 13  2  3
 13 14  1  0
 14 15  2  3
 15 16  1  0
 16 17  2  3
 17 18  1  0
 18 19  1  0
 19 20  1  0
 20 21  1  0
 21 22  1  0
 22 23  1  0
 23 24  1  0
 24 25  1  0
 25 26  2  0
 25 27  1  0
 24 28  1  0
 16 29  1  0
 12 30  1  0
  7  2  1  0
M  END
$$$$
