
     RDKit          3D

 30 30  0  0  0  0  0  0  0  0999 V2000
    1.8073   -4.1804   14.3368 C   0  0  0  0  0  0  0  0  0  0  0  0
    2.9821   -5.1019   14.3044 C   0  0  0  0  0  0  0  0  0  0  0  0
    3.4974   -5.5141   13.1715 C   0  0  0  0  0  0  0  0  0  0  0  0
    4.7057   -6.4564   13.1579 C   0  0  0  0  0  0  0  0  0  0  0  0
    5.0668   -6.9814   14.4849 C   0  0  0  0  0  0  0  0  0  0  0  0
    4.9999   -5.8304   15.4821 C   0  0  0  0  0  0  0  0  0  0  0  0
    3.5329   -5.5417   15.6428 C   0  0  0  0  0  0  0  0  0  0  0  0
    4.2378   -7.6428   12.3055 C   0  0  0  0  0  0  0  0  0  0  0  0
    5.8369   -5.7876   12.4303 C   0  0  0  0  0  0  0  0  0  0  0  0
    2.9901   -5.1659   11.8699 C   0  0  0  0  0  0  0  0  0  0  0  0
    2.0227   -5.5294   11.1248 C   0  0  0  0  0  0  0  0  0  0  0  0
    1.8760   -4.9274    9.7868 C   0  0  0  0  0  0  0  0  0  0  0  0
    1.7366   -5.6368    8.6610 C   0  0  0  0  0  0  0  0  0  0  0  0
    0.7823   -5.3762    7.7193 C   0  0  0  0  0  0  0  0  0  0  0  0
   -0.0934   -5.1365    6.8562 C   0  0  0  0  0  0  0  0  0  0  0  0
   -0.0837   -5.1411    5.3780 C   0  0  0  0  0  0  0  0  0  0  0  0
    0.7268   -4.3303    4.7533 C   0  0  0  0  0  0  0  0  0  0  0  0
    0.9467   -4.1298    3.3186 C   0  0  0  0  0  0  0  0  0  0  0  0
    1.9475   -3.2535    2.8865 N   0  0  0  0  0  0  0  0  0  0  0  0
    1.5658   -1.9619    2.4607 C   0  0  0  0  0  0  0  0  0  0  0  0
    1.5664   -1.7855    0.9414 C   0  0  0  0  0  0  0  0  0  0  0  0
    0.1858   -1.3576    0.4642 C   0  0  0  0  0  0  0  0  0  0  0  0
    0.2961   -0.2275   -0.5354 C   0  0  0  0  0  0  0  0  0  0  0  0
   -0.5425    0.9631   -0.1856 C   0  0  0  0  0  0  0  0  0  0  0  0
    0.0398    2.2341   -0.7290 C   0  0  0  0  0  0  0  0  0  0  0  0
   -0.3858    3.3742   -0.4611 O   0  0  0  0  0  0  0  0  0  0  0  0
    1.1282    2.1227   -1.5909 O   0  0  0  0  0  0  0  0  0  0  0  0
   -1.9209    0.8675   -0.6127 N   0  0  0  0  0  0  0  0  0  0  0  0
   -1.1012   -6.0078    4.7384 C   0  0  0  0  0  0  0  0  0  0  0  0
    1.9384   -3.4494    9.6803 C   0  0  0  0  0  0  0  0  0  0  0  0
  1  2  1  0
  2  3  2  0
  3  4  1  0
  4  5  1  0
  5  6  1  0
  6  7  1  0
  4  8  1  0
  4  9  1  0
  3 10  1  0
 10 11  2  3
 11 12  1  0
 12 13  2  3
 13 14  1  0
 14 15  2  3
 15 16  1  0
 16 17  2  3
 17 18  1  0
 18 19  1  0
 19 20  1  0
 20 21  1  0
 21 22  1  0
 22 23  1  0
 23 24  1  0
 24 25  1  0
 25 26  2  0
 25 27  1  0
 24 28  1  0
 16 29  1  0
 12 30  1  0
  7  2  1  0
M  END
$$$$
