
     RDKit          3D

 30 30  0  0  0  0  0  0  0  0999 V2000
    1.4008   -2.0660   12.9105 C   0  0  0  0  0  0  0  0  0  0  0  0
   -0.0495   -1.7113   12.8771 C   0  0  0  0  0  0  0  0  0  0  0  0
   -0.8014   -2.0020   11.8431 C   0  0  0  0  0  0  0  0  0  0  0  0
   -2.2888   -1.6338   11.8285 C   0  0  0  0  0  0  0  0  0  0  0  0
   -2.7021   -0.7790   12.9535 C   0  0  0  0  0  0  0  0  0  0  0  0
   -2.0569   -1.3242   14.2224 C   0  0  0  0  0  0  0  0  0  0  0  0
   -0.5969   -0.9903   14.0890 C   0  0  0  0  0  0  0  0  0  0  0  0
   -2.4523   -0.8131   10.5429 C   0  0  0  0  0  0  0  0  0  0  0  0
   -3.0999   -2.8889   11.6769 C   0  0  0  0  0  0  0  0  0  0  0  0
   -0.3282   -2.6459   10.6456 C   0  0  0  0  0  0  0  0  0  0  0  0
   -0.5029   -3.7665   10.0652 C   0  0  0  0  0  0  0  0  0  0  0  0
    0.2586   -4.0716    8.8399 C   0  0  0  0  0  0  0  0  0  0  0  0
    0.0577   -5.1604    8.0886 C   0  0  0  0  0  0  0  0  0  0  0  0
   -0.2691   -5.1118    6.7634 C   0  0  0  0  0  0  0  0  0  0  0  0
   -0.5690   -5.0662    5.5480 C   0  0  0  0  0  0  0  0  0  0  0  0
    0.2340   -5.0913    4.3071 C   0  0  0  0  0  0  0  0  0  0  0  0
   -0.3525   -4.8122    3.1744 C   0  0  0  0  0  0  0  0  0  0  0  0
   -0.1138   -3.7196    2.2278 C   0  0  0  0  0  0  0  0  0  0  0  0
    1.1674   -3.5259    1.7014 N   0  0  0  0  0  0  0  0  0  0  0  0
    1.6894   -2.2137    1.6808 C   0  0  0  0  0  0  0  0  0  0  0  0
    0.9779   -1.2797    0.7006 C   0  0  0  0  0  0  0  0  0  0  0  0
    1.4267   -1.5758   -0.7234 C   0  0  0  0  0  0  0  0  0  0  0  0
    0.6541   -0.7292   -1.7108 C   0  0  0  0  0  0  0  0  0  0  0  0
    1.1845    0.6649   -1.8454 C   0  0  0  0  0  0  0  0  0  0  0  0
    2.2108    0.7683   -2.9343 C   0  0  0  0  0  0  0  0  0  0  0  0
    3.3876    0.3716   -2.8323 O   0  0  0  0  0  0  0  0  0  0  0  0
    1.8131    1.3490   -4.1361 O   0  0  0  0  0  0  0  0  0  0  0  0
    0.1691    1.6696   -2.0715 N   0  0  0  0  0  0  0  0  0  0  0  0
    1.6334   -5.5519    4.4648 C   0  0  0  0  0  0  0  0  0  0  0  0
    1.3449   -3.1409    8.4483 C   0  0  0  0  0  0  0  0  0  0  0  0
  1  2  1  0
  2  3  2  0
  3  4  1  0
  4  5  1  0
  5  6  1  0
  6  7  1  0
  4  8  1  0
  4  9  1  0
  3 10  1  0
 10 11  2  3
 11 12  1  0
 12 13  2  3
 13 14  1  0
 14 15  2  3
 15 16  1  0
 16 17  2  3
 17 18  1  0
 18 19  1  0
 19 20  1  0
 20 21  1  0
 21 22  1  0
 22 23  1  0
 23 24  1  0
 24 25  1  0
 25 26  2  0
 25 27  1  0
 24 28  1  0
 16 29  1  0
 12 30  1  0
  7  2  1  0
M  END
$$$$
