
     RDKit          3D

 27 29  0  0  0  0  0  0  0  0999 V2000
    3.4611   -6.3652   13.3290 O   0  0  0  0  0  0  0  0  0  0  0  0
    2.4273   -5.8581   13.8762 C   0  0  0  0  0  0  0  0  0  0  0  0
    2.3183   -5.6519   15.3070 C   0  0  0  0  0  0  0  0  0  0  0  0
    2.1964   -6.6895   16.1965 C   0  0  0  0  0  0  0  0  0  0  0  0
    2.0902   -6.4925   17.5533 C   0  0  0  0  0  0  0  0  0  0  0  0
    2.1067   -5.2075   18.0367 C   0  0  0  0  0  0  0  0  0  0  0  0
    2.2289   -4.1253   17.1692 C   0  0  0  0  0  0  0  0  0  0  0  0
    2.3342   -4.3718   15.7973 C   0  0  0  0  0  0  0  0  0  0  0  0
    2.4872   -3.0395   14.7005 Cl  0  0  0  0  0  0  0  0  0  0  0  0
    1.9663   -4.9816   19.7717 S   0  0  0  0  0  6  0  0  0  0  0  0
    1.0902   -3.7839   20.0262 O   0  0  0  0  0  0  0  0  0  0  0  0
    1.3591   -6.1887   20.4235 O   0  0  0  0  0  0  0  0  0  0  0  0
    3.5767   -4.6802   20.4705 C   0  0  0  0  0  0  0  0  0  0  0  0
    1.3296   -5.4746   13.0649 N   0  0  0  0  0  0  0  0  0  0  0  0
    1.3405   -5.5341   11.6390 C   0  0  0  0  0  0  0  0  0  0  0  0
    1.9549   -6.5866   10.9710 C   0  0  0  0  0  0  0  0  0  0  0  0
    1.9418   -6.6121    9.6007 C   0  0  0  0  0  0  0  0  0  0  0  0
    1.3287   -5.6118    8.8362 C   0  0  0  0  0  0  0  0  0  0  0  0
    0.7274   -4.5850    9.4711 C   0  0  0  0  0  0  0  0  0  0  0  0
    0.7436   -4.5616   10.8817 C   0  0  0  0  0  0  0  0  0  0  0  0
    0.0738   -3.4559    8.8266 C   0  0  0  0  0  0  0  0  0  0  0  0
    0.4138   -2.9156    7.6160 C   0  0  0  0  0  0  0  0  0  0  0  0
   -0.2705   -1.8567    7.0228 C   0  0  0  0  0  0  0  0  0  0  0  0
   -1.3507   -1.3047    7.6643 C   0  0  0  0  0  0  0  0  0  0  0  0
   -1.6955   -1.8523    8.8892 C   0  0  0  0  0  0  0  0  0  0  0  0
   -1.0109   -2.8686    9.4231 N   0  0  0  0  0  0  0  0  0  0  0  0
    1.4327   -5.7561    7.1071 Cl  0  0  0  0  0  0  0  0  0  0  0  0
  1  2  2  0
  2  3  1  0
  3  4  2  0
  4  5  1  0
  5  6  2  0
  6  7  1  0
  7  8  2  0
  8  9  1  0
  6 10  1  0
 10 11  2  0
 10 12  2  0
 10 13  1  0
  2 14  1  0
 14 15  1  0
 15 16  2  0
 16 17  1  0
 17 18  2  0
 18 19  1  0
 19 20  2  0
 19 21  1  0
 21 22  2  0
 22 23  1  0
 23 24  2  0
 24 25  1  0
 25 26  2  0
 18 27  1  0
  8  3  1  0
 20 15  1  0
 26 21  1  0
M  END
$$$$
