
     RDKit          3D

 27 29  0  0  0  0  0  0  0  0999 V2000
    1.3618   -3.9957    8.8178 O   0  0  0  0  0  0  0  0  0  0  0  0
    1.3913   -4.9437    9.6697 C   0  0  0  0  0  0  0  0  0  0  0  0
    1.6266   -4.7217   11.0829 C   0  0  0  0  0  0  0  0  0  0  0  0
    0.6710   -4.2015   11.9189 C   0  0  0  0  0  0  0  0  0  0  0  0
    0.8964   -3.9887   13.2586 C   0  0  0  0  0  0  0  0  0  0  0  0
    2.1255   -4.3090   13.7800 C   0  0  0  0  0  0  0  0  0  0  0  0
    3.1239   -4.8394   12.9672 C   0  0  0  0  0  0  0  0  0  0  0  0
    2.8513   -5.0392   11.6108 C   0  0  0  0  0  0  0  0  0  0  0  0
    4.0796   -5.6980   10.5818 Cl  0  0  0  0  0  0  0  0  0  0  0  0
    2.3901   -4.0251   15.4918 S   0  0  0  0  0  6  0  0  0  0  0  0
    2.7985   -5.3251   16.1321 O   0  0  0  0  0  0  0  0  0  0  0  0
    3.4688   -3.0050   15.7070 O   0  0  0  0  0  0  0  0  0  0  0  0
    0.8803   -3.4567   16.2468 C   0  0  0  0  0  0  0  0  0  0  0  0
    1.1871   -6.2769    9.2325 N   0  0  0  0  0  0  0  0  0  0  0  0
    1.0899   -6.6532    7.8592 C   0  0  0  0  0  0  0  0  0  0  0  0
    1.7699   -7.7626    7.3710 C   0  0  0  0  0  0  0  0  0  0  0  0
    1.6494   -8.0958    6.0470 C   0  0  0  0  0  0  0  0  0  0  0  0
    0.8614   -7.3580    5.1549 C   0  0  0  0  0  0  0  0  0  0  0  0
    0.1948   -6.2798    5.6151 C   0  0  0  0  0  0  0  0  0  0  0  0
    0.3219   -5.9391    6.9784 C   0  0  0  0  0  0  0  0  0  0  0  0
   -0.6390   -5.3942    4.8164 C   0  0  0  0  0  0  0  0  0  0  0  0
   -0.4600   -5.1016    3.4915 C   0  0  0  0  0  0  0  0  0  0  0  0
   -1.3118   -4.2760    2.7605 C   0  0  0  0  0  0  0  0  0  0  0  0
   -2.4002   -3.7111    3.3764 C   0  0  0  0  0  0  0  0  0  0  0  0
   -2.5819   -4.0081    4.7172 C   0  0  0  0  0  0  0  0  0  0  0  0
   -1.7396   -4.8054    5.3816 N   0  0  0  0  0  0  0  0  0  0  0  0
    0.8420   -7.8753    3.4956 Cl  0  0  0  0  0  0  0  0  0  0  0  0
  1  2  2  0
  2  3  1  0
  3  4  2  0
  4  5  1  0
  5  6  2  0
  6  7  1  0
  7  8  2  0
  8  9  1  0
  6 10  1  0
 10 11  2  0
 10 12  2  0
 10 13  1  0
  2 14  1  0
 14 15  1  0
 15 16  2  0
 16 17  1  0
 17 18  2  0
 18 19  1  0
 19 20  2  0
 19 21  1  0
 21 22  2  0
 22 23  1  0
 23 24  2  0
 24 25  1  0
 25 26  2  0
 18 27  1  0
  8  3  1  0
 20 15  1  0
 26 21  1  0
M  END
$$$$
