
     RDKit          3D

 27 29  0  0  0  0  0  0  0  0999 V2000
    1.7394   -3.4782    8.6330 O   0  0  0  0  0  0  0  0  0  0  0  0
    1.1931   -4.3650    9.3681 C   0  0  0  0  0  0  0  0  0  0  0  0
    1.5281   -4.5389   10.7678 C   0  0  0  0  0  0  0  0  0  0  0  0
    2.7392   -5.0327   11.1825 C   0  0  0  0  0  0  0  0  0  0  0  0
    3.0547   -5.1999   12.5105 C   0  0  0  0  0  0  0  0  0  0  0  0
    2.1214   -4.8596   13.4583 C   0  0  0  0  0  0  0  0  0  0  0  0
    0.8798   -4.3547   13.0813 C   0  0  0  0  0  0  0  0  0  0  0  0
    0.6015   -4.2012   11.7201 C   0  0  0  0  0  0  0  0  0  0  0  0
   -0.9374   -3.5747   11.2293 Cl  0  0  0  0  0  0  0  0  0  0  0  0
    2.5462   -5.0852   15.1464 S   0  0  0  0  0  6  0  0  0  0  0  0
    1.5559   -6.0368   15.7631 O   0  0  0  0  0  0  0  0  0  0  0  0
    3.9292   -5.6508   15.2816 O   0  0  0  0  0  0  0  0  0  0  0  0
    2.4599   -3.5249   16.0013 C   0  0  0  0  0  0  0  0  0  0  0  0
    0.2150   -5.2252    8.8080 N   0  0  0  0  0  0  0  0  0  0  0  0
   -0.2705   -5.1069    7.4712 C   0  0  0  0  0  0  0  0  0  0  0  0
   -1.1856   -4.1195    7.1265 C   0  0  0  0  0  0  0  0  0  0  0  0
   -1.6265   -4.0340    5.8316 C   0  0  0  0  0  0  0  0  0  0  0  0
   -1.1892   -4.9089    4.8294 C   0  0  0  0  0  0  0  0  0  0  0  0
   -0.3001   -5.8713    5.1492 C   0  0  0  0  0  0  0  0  0  0  0  0
    0.1508   -5.9569    6.4834 C   0  0  0  0  0  0  0  0  0  0  0  0
    0.2292   -6.8734    4.2365 C   0  0  0  0  0  0  0  0  0  0  0  0
    0.2366   -6.7910    2.8704 C   0  0  0  0  0  0  0  0  0  0  0  0
    0.7924   -7.7625    2.0406 C   0  0  0  0  0  0  0  0  0  0  0  0
    1.3732   -8.8751    2.5956 C   0  0  0  0  0  0  0  0  0  0  0  0
    1.3667   -8.9581    3.9784 C   0  0  0  0  0  0  0  0  0  0  0  0
    0.8216   -8.0027    4.7378 N   0  0  0  0  0  0  0  0  0  0  0  0
   -1.8712   -4.7064    3.2435 Cl  0  0  0  0  0  0  0  0  0  0  0  0
  1  2  2  0
  2  3  1  0
  3  4  2  0
  4  5  1  0
  5  6  2  0
  6  7  1  0
  7  8  2  0
  8  9  1  0
  6 10  1  0
 10 11  2  0
 10 12  2  0
 10 13  1  0
  2 14  1  0
 14 15  1  0
 15 16  2  0
 16 17  1  0
 17 18  2  0
 18 19  1  0
 19 20  2  0
 19 21  1  0
 21 22  2  0
 22 23  1  0
 23 24  2  0
 24 25  1  0
 25 26  2  0
 18 27  1  0
  8  3  1  0
 20 15  1  0
 26 21  1  0
M  END
$$$$
