
     RDKit          3D

 27 29  0  0  0  0  0  0  0  0999 V2000
    0.0798   -3.4643   10.5756 O   0  0  0  0  0  0  0  0  0  0  0  0
    0.5313   -4.6301   10.3261 C   0  0  0  0  0  0  0  0  0  0  0  0
    0.3993   -5.2614    9.0278 C   0  0  0  0  0  0  0  0  0  0  0  0
    0.3136   -6.6220    8.8724 C   0  0  0  0  0  0  0  0  0  0  0  0
    0.1913   -7.2198    7.6401 C   0  0  0  0  0  0  0  0  0  0  0  0
    0.1535   -6.4243    6.5216 C   0  0  0  0  0  0  0  0  0  0  0  0
    0.2373   -5.0390    6.6339 C   0  0  0  0  0  0  0  0  0  0  0  0
    0.3608   -4.4738    7.9064 C   0  0  0  0  0  0  0  0  0  0  0  0
    0.4665   -2.7521    8.0685 Cl  0  0  0  0  0  0  0  0  0  0  0  0
    0.0003   -7.2108    4.9599 S   0  0  0  0  0  6  0  0  0  0  0  0
    1.2350   -8.0386    4.7210 O   0  0  0  0  0  0  0  0  0  0  0  0
   -1.2082   -8.0989    4.9217 O   0  0  0  0  0  0  0  0  0  0  0  0
   -0.1295   -5.9809    3.6781 C   0  0  0  0  0  0  0  0  0  0  0  0
    1.1930   -5.3526   11.3511 N   0  0  0  0  0  0  0  0  0  0  0  0
    1.3275   -4.8810   12.6914 C   0  0  0  0  0  0  0  0  0  0  0  0
    0.9723   -3.5813   13.0321 C   0  0  0  0  0  0  0  0  0  0  0  0
    1.1116   -3.1648   14.3304 C   0  0  0  0  0  0  0  0  0  0  0  0
    1.6018   -4.0024   15.3400 C   0  0  0  0  0  0  0  0  0  0  0  0
    1.9492   -5.2667   15.0240 C   0  0  0  0  0  0  0  0  0  0  0  0
    1.8053   -5.6917   13.6864 C   0  0  0  0  0  0  0  0  0  0  0  0
    2.4997   -6.2498   15.9449 C   0  0  0  0  0  0  0  0  0  0  0  0
    3.6124   -6.0846   16.7244 C   0  0  0  0  0  0  0  0  0  0  0  0
    4.0770   -7.0444   17.6213 C   0  0  0  0  0  0  0  0  0  0  0  0
    3.4009   -8.2313   17.7530 C   0  0  0  0  0  0  0  0  0  0  0  0
    2.2740   -8.3980   16.9648 C   0  0  0  0  0  0  0  0  0  0  0  0
    1.8629   -7.4509   16.1160 N   0  0  0  0  0  0  0  0  0  0  0  0
    1.7651   -3.3200   16.9302 Cl  0  0  0  0  0  0  0  0  0  0  0  0
  1  2  2  0
  2  3  1  0
  3  4  2  0
  4  5  1  0
  5  6  2  0
  6  7  1  0
  7  8  2  0
  8  9  1  0
  6 10  1  0
 10 11  2  0
 10 12  2  0
 10 13  1  0
  2 14  1  0
 14 15  1  0
 15 16  2  0
 16 17  1  0
 17 18  2  0
 18 19  1  0
 19 20  2  0
 19 21  1  0
 21 22  2  0
 22 23  1  0
 23 24  2  0
 24 25  1  0
 25 26  2  0
 18 27  1  0
  8  3  1  0
 20 15  1  0
 26 21  1  0
M  END
$$$$
