
     RDKit          3D

 27 29  0  0  0  0  0  0  0  0999 V2000
   -0.3733   -3.8809   14.3511 O   0  0  0  0  0  0  0  0  0  0  0  0
    0.6376   -4.6189   14.5934 C   0  0  0  0  0  0  0  0  0  0  0  0
    1.0882   -4.9153   15.9391 C   0  0  0  0  0  0  0  0  0  0  0  0
    1.1619   -6.1947   16.4293 C   0  0  0  0  0  0  0  0  0  0  0  0
    1.5867   -6.4743   17.7068 C   0  0  0  0  0  0  0  0  0  0  0  0
    1.9513   -5.4328   18.5238 C   0  0  0  0  0  0  0  0  0  0  0  0
    1.8919   -4.1190   18.0666 C   0  0  0  0  0  0  0  0  0  0  0  0
    1.4540   -3.8806   16.7607 C   0  0  0  0  0  0  0  0  0  0  0  0
    1.3727   -2.2533   16.1718 Cl  0  0  0  0  0  0  0  0  0  0  0  0
    2.4869   -5.8148   20.1511 S   0  0  0  0  0  6  0  0  0  0  0  0
    2.1939   -4.6340   21.0379 O   0  0  0  0  0  0  0  0  0  0  0  0
    1.7740   -7.0235   20.6817 O   0  0  0  0  0  0  0  0  0  0  0  0
    4.2422   -6.1172   20.1503 C   0  0  0  0  0  0  0  0  0  0  0  0
    1.3623   -5.1810   13.5121 N   0  0  0  0  0  0  0  0  0  0  0  0
    0.8974   -5.1806   12.1627 C   0  0  0  0  0  0  0  0  0  0  0  0
   -0.3099   -4.5829   11.8216 C   0  0  0  0  0  0  0  0  0  0  0  0
   -0.7222   -4.5987   10.5145 C   0  0  0  0  0  0  0  0  0  0  0  0
    0.0298   -5.1979    9.4965 C   0  0  0  0  0  0  0  0  0  0  0  0
    1.2042   -5.7806    9.8128 C   0  0  0  0  0  0  0  0  0  0  0  0
    1.6250   -5.7633   11.1594 C   0  0  0  0  0  0  0  0  0  0  0  0
    2.0867   -6.4687    8.8825 C   0  0  0  0  0  0  0  0  0  0  0  0
    2.4250   -6.0372    7.6286 C   0  0  0  0  0  0  0  0  0  0  0  0
    3.3075   -6.7151    6.7901 C   0  0  0  0  0  0  0  0  0  0  0  0
    3.8865   -7.8831    7.2188 C   0  0  0  0  0  0  0  0  0  0  0  0
    3.5449   -8.3193    8.4885 C   0  0  0  0  0  0  0  0  0  0  0  0
    2.6927   -7.6380    9.2606 N   0  0  0  0  0  0  0  0  0  0  0  0
   -0.6432   -5.1786    7.8939 Cl  0  0  0  0  0  0  0  0  0  0  0  0
  1  2  2  0
  2  3  1  0
  3  4  2  0
  4  5  1  0
  5  6  2  0
  6  7  1  0
  7  8  2  0
  8  9  1  0
  6 10  1  0
 10 11  2  0
 10 12  2  0
 10 13  1  0
  2 14  1  0
 14 15  1  0
 15 16  2  0
 16 17  1  0
 17 18  2  0
 18 19  1  0
 19 20  2  0
 19 21  1  0
 21 22  2  0
 22 23  1  0
 23 24  2  0
 24 25  1  0
 25 26  2  0
 18 27  1  0
  8  3  1  0
 20 15  1  0
 26 21  1  0
M  END
$$$$
