
     RDKit          3D

 27 29  0  0  0  0  0  0  0  0999 V2000
   -1.3603   -4.7798    4.8003 O   0  0  0  0  0  0  0  0  0  0  0  0
   -0.4562   -5.6332    4.5181 C   0  0  0  0  0  0  0  0  0  0  0  0
   -0.3740   -6.2919    3.2293 C   0  0  0  0  0  0  0  0  0  0  0  0
   -0.4928   -7.6512    3.0846 C   0  0  0  0  0  0  0  0  0  0  0  0
   -0.4118   -8.2751    1.8619 C   0  0  0  0  0  0  0  0  0  0  0  0
   -0.2040   -7.5081    0.7422 C   0  0  0  0  0  0  0  0  0  0  0  0
   -0.0779   -6.1252    0.8437 C   0  0  0  0  0  0  0  0  0  0  0  0
   -0.1667   -5.5328    2.1066 C   0  0  0  0  0  0  0  0  0  0  0  0
   -0.0127   -3.8135    2.2552 Cl  0  0  0  0  0  0  0  0  0  0  0  0
   -0.1009   -8.3279   -0.8065 S   0  0  0  0  0  6  0  0  0  0  0  0
    1.3045   -8.1858   -1.3273 O   0  0  0  0  0  0  0  0  0  0  0  0
   -0.4342   -9.7839   -0.6671 O   0  0  0  0  0  0  0  0  0  0  0  0
   -1.2261   -7.5722   -1.9621 C   0  0  0  0  0  0  0  0  0  0  0  0
    0.5172   -5.9626    5.4949 N   0  0  0  0  0  0  0  0  0  0  0  0
    0.5244   -5.4258    6.8173 C   0  0  0  0  0  0  0  0  0  0  0  0
   -0.1203   -4.2294    7.1079 C   0  0  0  0  0  0  0  0  0  0  0  0
   -0.0954   -3.7467    8.3905 C   0  0  0  0  0  0  0  0  0  0  0  0
    0.5590   -4.4152    9.4326 C   0  0  0  0  0  0  0  0  0  0  0  0
    1.1877   -5.5780    9.1654 C   0  0  0  0  0  0  0  0  0  0  0  0
    1.1608   -6.0714    7.8438 C   0  0  0  0  0  0  0  0  0  0  0  0
    1.9350   -6.3774   10.1246 C   0  0  0  0  0  0  0  0  0  0  0  0
    1.4257   -6.9603   11.2533 C   0  0  0  0  0  0  0  0  0  0  0  0
    2.1766   -7.7510   12.1207 C   0  0  0  0  0  0  0  0  0  0  0  0
    3.5036   -7.9766   11.8537 C   0  0  0  0  0  0  0  0  0  0  0  0
    4.0188   -7.3875   10.7106 C   0  0  0  0  0  0  0  0  0  0  0  0
    3.2627   -6.6350    9.9052 N   0  0  0  0  0  0  0  0  0  0  0  0
    0.5433   -3.6579   10.9970 Cl  0  0  0  0  0  0  0  0  0  0  0  0
  1  2  2  0
  2  3  1  0
  3  4  2  0
  4  5  1  0
  5  6  2  0
  6  7  1  0
  7  8  2  0
  8  9  1  0
  6 10  1  0
 10 11  2  0
 10 12  2  0
 10 13  1  0
  2 14  1  0
 14 15  1  0
 15 16  2  0
 16 17  1  0
 17 18  2  0
 18 19  1  0
 19 20  2  0
 19 21  1  0
 21 22  2  0
 22 23  1  0
 23 24  2  0
 24 25  1  0
 25 26  2  0
 18 27  1  0
  8  3  1  0
 20 15  1  0
 26 21  1  0
M  END
$$$$
