
     RDKit          3D

 27 29  0  0  0  0  0  0  0  0999 V2000
   -0.7329   -3.6682   10.4667 O   0  0  0  0  0  0  0  0  0  0  0  0
    0.4282   -4.1863   10.3729 C   0  0  0  0  0  0  0  0  0  0  0  0
    1.2603   -4.4612   11.5278 C   0  0  0  0  0  0  0  0  0  0  0  0
    1.3495   -3.6044   12.5957 C   0  0  0  0  0  0  0  0  0  0  0  0
    2.1414   -3.8650   13.6893 C   0  0  0  0  0  0  0  0  0  0  0  0
    2.8712   -5.0277   13.7135 C   0  0  0  0  0  0  0  0  0  0  0  0
    2.8100   -5.9252   12.6509 C   0  0  0  0  0  0  0  0  0  0  0  0
    1.9919   -5.6202   11.5593 C   0  0  0  0  0  0  0  0  0  0  0  0
    1.9011   -6.7234   10.2265 Cl  0  0  0  0  0  0  0  0  0  0  0  0
    3.8769   -5.3362   15.1187 S   0  0  0  0  0  6  0  0  0  0  0  0
    5.3190   -5.1829   14.7144 O   0  0  0  0  0  0  0  0  0  0  0  0
    3.5658   -4.3715   16.2246 O   0  0  0  0  0  0  0  0  0  0  0  0
    3.6105   -7.0007   15.6942 C   0  0  0  0  0  0  0  0  0  0  0  0
    0.9415   -4.5131    9.0923 N   0  0  0  0  0  0  0  0  0  0  0  0
    0.2162   -4.3251    7.8775 C   0  0  0  0  0  0  0  0  0  0  0  0
   -0.7765   -3.3577    7.7787 C   0  0  0  0  0  0  0  0  0  0  0  0
   -1.4492   -3.2033    6.5946 C   0  0  0  0  0  0  0  0  0  0  0  0
   -1.1757   -3.9874    5.4670 C   0  0  0  0  0  0  0  0  0  0  0  0
   -0.2139   -4.9293    5.5480 C   0  0  0  0  0  0  0  0  0  0  0  0
    0.4759   -5.0861    6.7688 C   0  0  0  0  0  0  0  0  0  0  0  0
    0.1703   -5.8423    4.4820 C   0  0  0  0  0  0  0  0  0  0  0  0
    0.2674   -5.5294    3.1532 C   0  0  0  0  0  0  0  0  0  0  0  0
    0.6788   -6.4322    2.1748 C   0  0  0  0  0  0  0  0  0  0  0  0
    1.0128   -7.7139    2.5338 C   0  0  0  0  0  0  0  0  0  0  0  0
    0.9155   -8.0303    3.8790 C   0  0  0  0  0  0  0  0  0  0  0  0
    0.5156   -7.1331    4.7855 N   0  0  0  0  0  0  0  0  0  0  0  0
   -2.1422   -3.7071    4.0497 Cl  0  0  0  0  0  0  0  0  0  0  0  0
  1  2  2  0
  2  3  1  0
  3  4  2  0
  4  5  1  0
  5  6  2  0
  6  7  1  0
  7  8  2  0
  8  9  1  0
  6 10  1  0
 10 11  2  0
 10 12  2  0
 10 13  1  0
  2 14  1  0
 14 15  1  0
 15 16  2  0
 16 17  1  0
 17 18  2  0
 18 19  1  0
 19 20  2  0
 19 21  1  0
 21 22  2  0
 22 23  1  0
 23 24  2  0
 24 25  1  0
 25 26  2  0
 18 27  1  0
  8  3  1  0
 20 15  1  0
 26 21  1  0
M  END
$$$$
