
     RDKit          3D

 27 29  0  0  0  0  0  0  0  0999 V2000
    1.6626   -2.7732   21.4042 O   0  0  0  0  0  0  0  0  0  0  0  0
    0.5881   -3.1107   22.0014 C   0  0  0  0  0  0  0  0  0  0  0  0
   -0.0013   -2.3190   23.0633 C   0  0  0  0  0  0  0  0  0  0  0  0
   -0.3791   -2.8599   24.2664 C   0  0  0  0  0  0  0  0  0  0  0  0
   -0.9407   -2.1084   25.2717 C   0  0  0  0  0  0  0  0  0  0  0  0
   -1.1309   -0.7646   25.0636 C   0  0  0  0  0  0  0  0  0  0  0  0
   -0.7617   -0.1749   23.8575 C   0  0  0  0  0  0  0  0  0  0  0  0
   -0.1942   -0.9766   22.8630 C   0  0  0  0  0  0  0  0  0  0  0  0
    0.2724   -0.2629   21.3548 Cl  0  0  0  0  0  0  0  0  0  0  0  0
   -1.8525    0.1727   26.3605 S   0  0  0  0  0  6  0  0  0  0  0  0
   -2.5159    1.3835   25.7601 O   0  0  0  0  0  0  0  0  0  0  0  0
   -2.8741   -0.6361   27.1040 O   0  0  0  0  0  0  0  0  0  0  0  0
   -0.5851    0.7079   27.4919 C   0  0  0  0  0  0  0  0  0  0  0  0
   -0.0703   -4.3080   21.6228 N   0  0  0  0  0  0  0  0  0  0  0  0
    0.4999   -5.2824   20.7496 C   0  0  0  0  0  0  0  0  0  0  0  0
    1.3096   -4.9038   19.6855 C   0  0  0  0  0  0  0  0  0  0  0  0
    1.8429   -5.8680   18.8703 C   0  0  0  0  0  0  0  0  0  0  0  0
    1.6043   -7.2340   19.0662 C   0  0  0  0  0  0  0  0  0  0  0  0
    0.8214   -7.6160   20.0958 C   0  0  0  0  0  0  0  0  0  0  0  0
    0.2734   -6.6207   20.9323 C   0  0  0  0  0  0  0  0  0  0  0  0
    0.4535   -8.9866   20.4177 C   0  0  0  0  0  0  0  0  0  0  0  0
   -0.0415   -9.9122   19.5394 C   0  0  0  0  0  0  0  0  0  0  0  0
   -0.3421  -11.2268   19.8902 C   0  0  0  0  0  0  0  0  0  0  0  0
   -0.1398  -11.6461   21.1810 C   0  0  0  0  0  0  0  0  0  0  0  0
    0.3622  -10.7095   22.0697 C   0  0  0  0  0  0  0  0  0  0  0  0
    0.6368   -9.4573   21.6913 N   0  0  0  0  0  0  0  0  0  0  0  0
    2.3116   -8.3368   17.9239 Cl  0  0  0  0  0  0  0  0  0  0  0  0
  1  2  2  0
  2  3  1  0
  3  4  2  0
  4  5  1  0
  5  6  2  0
  6  7  1  0
  7  8  2  0
  8  9  1  0
  6 10  1  0
 10 11  2  0
 10 12  2  0
 10 13  1  0
  2 14  1  0
 14 15  1  0
 15 16  2  0
 16 17  1  0
 17 18  2  0
 18 19  1  0
 19 20  2  0
 19 21  1  0
 21 22  2  0
 22 23  1  0
 23 24  2  0
 24 25  1  0
 25 26  2  0
 18 27  1  0
  8  3  1  0
 20 15  1  0
 26 21  1  0
M  END
$$$$
