
     RDKit          3D

 27 29  0  0  0  0  0  0  0  0999 V2000
    2.2047   -5.6271    9.0169 O   0  0  0  0  0  0  0  0  0  0  0  0
    1.3339   -5.4052    9.9212 C   0  0  0  0  0  0  0  0  0  0  0  0
    1.6775   -5.2575   11.3219 C   0  0  0  0  0  0  0  0  0  0  0  0
    1.0767   -4.3315   12.1370 C   0  0  0  0  0  0  0  0  0  0  0  0
    1.4055   -4.1904   13.4647 C   0  0  0  0  0  0  0  0  0  0  0  0
    2.3726   -5.0078   13.9955 C   0  0  0  0  0  0  0  0  0  0  0  0
    3.0076   -5.9611   13.2039 C   0  0  0  0  0  0  0  0  0  0  0  0
    2.6421   -6.0701   11.8591 C   0  0  0  0  0  0  0  0  0  0  0  0
    3.4197   -7.2498   10.8566 Cl  0  0  0  0  0  0  0  0  0  0  0  0
    2.7771   -4.8063   15.6916 S   0  0  0  0  0  6  0  0  0  0  0  0
    3.2723   -6.1252   16.2225 O   0  0  0  0  0  0  0  0  0  0  0  0
    3.8442   -3.7669   15.8698 O   0  0  0  0  0  0  0  0  0  0  0  0
    1.3244   -4.3238   16.6024 C   0  0  0  0  0  0  0  0  0  0  0  0
   -0.0322   -5.2957    9.5580 N   0  0  0  0  0  0  0  0  0  0  0  0
   -0.4967   -5.3211    8.2087 C   0  0  0  0  0  0  0  0  0  0  0  0
   -1.7978   -4.9492    7.8923 C   0  0  0  0  0  0  0  0  0  0  0  0
   -2.2073   -4.9825    6.5847 C   0  0  0  0  0  0  0  0  0  0  0  0
   -1.3611   -5.3795    5.5420 C   0  0  0  0  0  0  0  0  0  0  0  0
   -0.0953   -5.7419    5.8342 C   0  0  0  0  0  0  0  0  0  0  0  0
    0.3225   -5.7073    7.1814 C   0  0  0  0  0  0  0  0  0  0  0  0
    0.8965   -6.2053    4.8755 C   0  0  0  0  0  0  0  0  0  0  0  0
    0.6810   -7.1103    3.8717 C   0  0  0  0  0  0  0  0  0  0  0  0
    1.6566   -7.4923    2.9531 C   0  0  0  0  0  0  0  0  0  0  0  0
    2.9131   -6.9465    3.0338 C   0  0  0  0  0  0  0  0  0  0  0  0
    3.1309   -6.0296    4.0492 C   0  0  0  0  0  0  0  0  0  0  0  0
    2.1661   -5.6914    4.9103 N   0  0  0  0  0  0  0  0  0  0  0  0
   -2.0350   -5.4145    3.9401 Cl  0  0  0  0  0  0  0  0  0  0  0  0
  1  2  2  0
  2  3  1  0
  3  4  2  0
  4  5  1  0
  5  6  2  0
  6  7  1  0
  7  8  2  0
  8  9  1  0
  6 10  1  0
 10 11  2  0
 10 12  2  0
 10 13  1  0
  2 14  1  0
 14 15  1  0
 15 16  2  0
 16 17  1  0
 17 18  2  0
 18 19  1  0
 19 20  2  0
 19 21  1  0
 21 22  2  0
 22 23  1  0
 23 24  2  0
 24 25  1  0
 25 26  2  0
 18 27  1  0
  8  3  1  0
 20 15  1  0
 26 21  1  0
M  END
$$$$
