
     RDKit          3D

 27 29  0  0  0  0  0  0  0  0999 V2000
    2.3315   -3.9528   10.8633 O   0  0  0  0  0  0  0  0  0  0  0  0
    1.8395   -5.0100   11.3785 C   0  0  0  0  0  0  0  0  0  0  0  0
    1.6835   -5.1864   12.8090 C   0  0  0  0  0  0  0  0  0  0  0  0
    0.4766   -5.4837   13.3902 C   0  0  0  0  0  0  0  0  0  0  0  0
    0.3295   -5.6480   14.7475 C   0  0  0  0  0  0  0  0  0  0  0  0
    1.4330   -5.5091   15.5525 C   0  0  0  0  0  0  0  0  0  0  0  0
    2.6769   -5.2080   15.0042 C   0  0  0  0  0  0  0  0  0  0  0  0
    2.7809   -5.0495   13.6193 C   0  0  0  0  0  0  0  0  0  0  0  0
    4.3194   -4.6746   12.9165 Cl  0  0  0  0  0  0  0  0  0  0  0  0
    1.2191   -5.7202   17.2819 S   0  0  0  0  0  6  0  0  0  0  0  0
   -0.2386   -5.9817   17.5525 O   0  0  0  0  0  0  0  0  0  0  0  0
    2.0331   -6.8748   17.7871 O   0  0  0  0  0  0  0  0  0  0  0  0
    1.7090   -4.2345   18.1335 C   0  0  0  0  0  0  0  0  0  0  0  0
    1.4225   -6.0668   10.5303 N   0  0  0  0  0  0  0  0  0  0  0  0
    1.4472   -5.9943    9.1051 C   0  0  0  0  0  0  0  0  0  0  0  0
    2.5435   -5.4659    8.4340 C   0  0  0  0  0  0  0  0  0  0  0  0
    2.5332   -5.4161    7.0643 C   0  0  0  0  0  0  0  0  0  0  0  0
    1.4531   -5.8805    6.3035 C   0  0  0  0  0  0  0  0  0  0  0  0
    0.3830   -6.3971    6.9413 C   0  0  0  0  0  0  0  0  0  0  0  0
    0.3967   -6.4458    8.3514 C   0  0  0  0  0  0  0  0  0  0  0  0
   -0.8265   -6.8934    6.3024 C   0  0  0  0  0  0  0  0  0  0  0  0
   -1.4101   -8.1111    6.5249 C   0  0  0  0  0  0  0  0  0  0  0  0
   -2.5930   -8.5241    5.9153 C   0  0  0  0  0  0  0  0  0  0  0  0
   -3.2319   -7.6837    5.0386 C   0  0  0  0  0  0  0  0  0  0  0  0
   -2.6418   -6.4506    4.8142 C   0  0  0  0  0  0  0  0  0  0  0  0
   -1.5050   -6.0942    5.4202 N   0  0  0  0  0  0  0  0  0  0  0  0
    1.5647   -5.7102    4.5772 Cl  0  0  0  0  0  0  0  0  0  0  0  0
  1  2  2  0
  2  3  1  0
  3  4  2  0
  4  5  1  0
  5  6  2  0
  6  7  1  0
  7  8  2  0
  8  9  1  0
  6 10  1  0
 10 11  2  0
 10 12  2  0
 10 13  1  0
  2 14  1  0
 14 15  1  0
 15 16  2  0
 16 17  1  0
 17 18  2  0
 18 19  1  0
 19 20  2  0
 19 21  1  0
 21 22  2  0
 22 23  1  0
 23 24  2  0
 24 25  1  0
 25 26  2  0
 18 27  1  0
  8  3  1  0
 20 15  1  0
 26 21  1  0
M  END
$$$$
