
     RDKit          3D

 27 29  0  0  0  0  0  0  0  0999 V2000
    1.6649   -6.6056    7.9096 O   0  0  0  0  0  0  0  0  0  0  0  0
    1.2227   -5.5858    8.5339 C   0  0  0  0  0  0  0  0  0  0  0  0
    1.5961   -5.2799    9.9009 C   0  0  0  0  0  0  0  0  0  0  0  0
    2.8540   -5.5174   10.3947 C   0  0  0  0  0  0  0  0  0  0  0  0
    3.2062   -5.2294   11.6923 C   0  0  0  0  0  0  0  0  0  0  0  0
    2.2623   -4.6830   12.5264 C   0  0  0  0  0  0  0  0  0  0  0  0
    0.9736   -4.4256   12.0663 C   0  0  0  0  0  0  0  0  0  0  0  0
    0.6591   -4.7340   10.7398 C   0  0  0  0  0  0  0  0  0  0  0  0
   -0.9386   -4.4216   10.1469 Cl  0  0  0  0  0  0  0  0  0  0  0  0
    2.7348   -4.3274   14.1791 S   0  0  0  0  0  6  0  0  0  0  0  0
    1.6653   -4.8477   15.1021 O   0  0  0  0  0  0  0  0  0  0  0  0
    4.0428   -4.9801   14.5164 O   0  0  0  0  0  0  0  0  0  0  0  0
    2.8804   -2.5655   14.3963 C   0  0  0  0  0  0  0  0  0  0  0  0
    0.3272   -4.7041    7.8775 N   0  0  0  0  0  0  0  0  0  0  0  0
   -0.2629   -4.9768    6.6069 C   0  0  0  0  0  0  0  0  0  0  0  0
   -1.5456   -4.5362    6.3038 C   0  0  0  0  0  0  0  0  0  0  0  0
   -2.0780   -4.8136    5.0716 C   0  0  0  0  0  0  0  0  0  0  0  0
   -1.3767   -5.5300    4.0939 C   0  0  0  0  0  0  0  0  0  0  0  0
   -0.1305   -5.9627    4.3737 C   0  0  0  0  0  0  0  0  0  0  0  0
    0.4141   -5.6761    5.6434 C   0  0  0  0  0  0  0  0  0  0  0  0
    0.7165   -6.7415    3.4828 C   0  0  0  0  0  0  0  0  0  0  0  0
    1.3121   -7.9366    3.7827 C   0  0  0  0  0  0  0  0  0  0  0  0
    2.0837   -8.6638    2.8786 C   0  0  0  0  0  0  0  0  0  0  0  0
    2.2738   -8.1801    1.6085 C   0  0  0  0  0  0  0  0  0  0  0  0
    1.6700   -6.9710    1.3047 C   0  0  0  0  0  0  0  0  0  0  0  0
    0.9376   -6.3051    2.2029 N   0  0  0  0  0  0  0  0  0  0  0  0
   -2.1991   -5.8441    2.5950 Cl  0  0  0  0  0  0  0  0  0  0  0  0
  1  2  2  0
  2  3  1  0
  3  4  2  0
  4  5  1  0
  5  6  2  0
  6  7  1  0
  7  8  2  0
  8  9  1  0
  6 10  1  0
 10 11  2  0
 10 12  2  0
 10 13  1  0
  2 14  1  0
 14 15  1  0
 15 16  2  0
 16 17  1  0
 17 18  2  0
 18 19  1  0
 19 20  2  0
 19 21  1  0
 21 22  2  0
 22 23  1  0
 23 24  2  0
 24 25  1  0
 25 26  2  0
 18 27  1  0
  8  3  1  0
 20 15  1  0
 26 21  1  0
M  END
$$$$
