
     RDKit          3D

 27 29  0  0  0  0  0  0  0  0999 V2000
    2.2513   -5.7481    7.1868 O   0  0  0  0  0  0  0  0  0  0  0  0
    1.3680   -5.4823    8.0667 C   0  0  0  0  0  0  0  0  0  0  0  0
    1.6890   -5.2896    9.4673 C   0  0  0  0  0  0  0  0  0  0  0  0
    2.4484   -6.1817   10.1814 C   0  0  0  0  0  0  0  0  0  0  0  0
    2.7498   -5.9993   11.5107 C   0  0  0  0  0  0  0  0  0  0  0  0
    2.2721   -4.8809   12.1481 C   0  0  0  0  0  0  0  0  0  0  0  0
    1.4977   -3.9498   11.4610 C   0  0  0  0  0  0  0  0  0  0  0  0
    1.2158   -4.1753   10.1106 C   0  0  0  0  0  0  0  0  0  0  0  0
    0.2540   -3.0292    9.2370 Cl  0  0  0  0  0  0  0  0  0  0  0  0
    2.6674   -4.6720   13.8455 S   0  0  0  0  0  6  0  0  0  0  0  0
    3.3444   -3.3381   14.0155 O   0  0  0  0  0  0  0  0  0  0  0  0
    1.4310   -4.7133   14.6942 O   0  0  0  0  0  0  0  0  0  0  0  0
    3.7840   -5.9588   14.3650 C   0  0  0  0  0  0  0  0  0  0  0  0
    0.0102   -5.3669    7.6752 N   0  0  0  0  0  0  0  0  0  0  0  0
   -0.4379   -5.4948    6.3262 C   0  0  0  0  0  0  0  0  0  0  0  0
   -1.7266   -5.1238    5.9616 C   0  0  0  0  0  0  0  0  0  0  0  0
   -2.1204   -5.2573    4.6556 C   0  0  0  0  0  0  0  0  0  0  0  0
   -1.2701   -5.7569    3.6615 C   0  0  0  0  0  0  0  0  0  0  0  0
   -0.0162   -6.1197    4.0006 C   0  0  0  0  0  0  0  0  0  0  0  0
    0.3855   -5.9818    5.3461 C   0  0  0  0  0  0  0  0  0  0  0  0
    0.9772   -6.6815    3.0978 C   0  0  0  0  0  0  0  0  0  0  0  0
    1.6451   -7.8629    3.2741 C   0  0  0  0  0  0  0  0  0  0  0  0
    2.5605   -8.3772    2.3580 C   0  0  0  0  0  0  0  0  0  0  0  0
    2.8268   -7.6829    1.2047 C   0  0  0  0  0  0  0  0  0  0  0  0
    2.1499   -6.4876    1.0258 C   0  0  0  0  0  0  0  0  0  0  0  0
    1.2794   -6.0299    1.9309 N   0  0  0  0  0  0  0  0  0  0  0  0
   -1.9246   -5.9110    2.0586 Cl  0  0  0  0  0  0  0  0  0  0  0  0
  1  2  2  0
  2  3  1  0
  3  4  2  0
  4  5  1  0
  5  6  2  0
  6  7  1  0
  7  8  2  0
  8  9  1  0
  6 10  1  0
 10 11  2  0
 10 12  2  0
 10 13  1  0
  2 14  1  0
 14 15  1  0
 15 16  2  0
 16 17  1  0
 17 18  2  0
 18 19  1  0
 19 20  2  0
 19 21  1  0
 21 22  2  0
 22 23  1  0
 23 24  2  0
 24 25  1  0
 25 26  2  0
 18 27  1  0
  8  3  1  0
 20 15  1  0
 26 21  1  0
M  END
$$$$
