
     RDKit          3D

 27 29  0  0  0  0  0  0  0  0999 V2000
    0.2972   -3.6439   13.4955 O   0  0  0  0  0  0  0  0  0  0  0  0
    0.8468   -4.6947   13.0273 C   0  0  0  0  0  0  0  0  0  0  0  0
    0.7901   -5.0506   11.6231 C   0  0  0  0  0  0  0  0  0  0  0  0
    0.9906   -4.1363   10.6198 C   0  0  0  0  0  0  0  0  0  0  0  0
    0.9337   -4.4745    9.2882 C   0  0  0  0  0  0  0  0  0  0  0  0
    0.6658   -5.7778    8.9493 C   0  0  0  0  0  0  0  0  0  0  0  0
    0.4560   -6.7379    9.9356 C   0  0  0  0  0  0  0  0  0  0  0  0
    0.5232   -6.3499   11.2768 C   0  0  0  0  0  0  0  0  0  0  0  0
    0.2654   -7.5289   12.5199 Cl  0  0  0  0  0  0  0  0  0  0  0  0
    0.5951   -6.1842    7.2431 S   0  0  0  0  0  6  0  0  0  0  0  0
    0.1721   -7.6233    7.1140 O   0  0  0  0  0  0  0  0  0  0  0  0
   -0.3893   -5.3106    6.5230 O   0  0  0  0  0  0  0  0  0  0  0  0
    2.2068   -5.9861    6.5112 C   0  0  0  0  0  0  0  0  0  0  0  0
    1.5466   -5.5619   13.9039 N   0  0  0  0  0  0  0  0  0  0  0  0
    1.6889   -5.3254   15.3042 C   0  0  0  0  0  0  0  0  0  0  0  0
    2.2817   -4.1608   15.7770 C   0  0  0  0  0  0  0  0  0  0  0  0
    2.3974   -3.9664   17.1289 C   0  0  0  0  0  0  0  0  0  0  0  0
    1.9384   -4.9017   18.0647 C   0  0  0  0  0  0  0  0  0  0  0  0
    1.3598   -6.0359   17.6201 C   0  0  0  0  0  0  0  0  0  0  0  0
    1.2432   -6.2330   16.2279 C   0  0  0  0  0  0  0  0  0  0  0  0
    0.8591   -7.1162   18.4567 C   0  0  0  0  0  0  0  0  0  0  0  0
    1.1476   -8.4458   18.3085 C   0  0  0  0  0  0  0  0  0  0  0  0
    0.6729   -9.4393   19.1624 C   0  0  0  0  0  0  0  0  0  0  0  0
   -0.1303   -9.0954   20.2206 C   0  0  0  0  0  0  0  0  0  0  0  0
   -0.4214   -7.7495   20.3712 C   0  0  0  0  0  0  0  0  0  0  0  0
    0.0550   -6.8282   19.5280 N   0  0  0  0  0  0  0  0  0  0  0  0
    2.1955   -4.5377   19.7448 Cl  0  0  0  0  0  0  0  0  0  0  0  0
  1  2  2  0
  2  3  1  0
  3  4  2  0
  4  5  1  0
  5  6  2  0
  6  7  1  0
  7  8  2  0
  8  9  1  0
  6 10  1  0
 10 11  2  0
 10 12  2  0
 10 13  1  0
  2 14  1  0
 14 15  1  0
 15 16  2  0
 16 17  1  0
 17 18  2  0
 18 19  1  0
 19 20  2  0
 19 21  1  0
 21 22  2  0
 22 23  1  0
 23 24  2  0
 24 25  1  0
 25 26  2  0
 18 27  1  0
  8  3  1  0
 20 15  1  0
 26 21  1  0
M  END
$$$$
