
     RDKit          3D

 27 29  0  0  0  0  0  0  0  0999 V2000
   -0.8855   -5.0359    7.7304 O   0  0  0  0  0  0  0  0  0  0  0  0
    0.3720   -5.2412    7.7720 C   0  0  0  0  0  0  0  0  0  0  0  0
    1.1525   -5.0870    8.9840 C   0  0  0  0  0  0  0  0  0  0  0  0
    0.9489   -4.0581    9.8687 C   0  0  0  0  0  0  0  0  0  0  0  0
    1.6918   -3.9113   11.0165 C   0  0  0  0  0  0  0  0  0  0  0  0
    2.6755   -4.8299   11.2878 C   0  0  0  0  0  0  0  0  0  0  0  0
    2.9155   -5.8895   10.4171 C   0  0  0  0  0  0  0  0  0  0  0  0
    2.1364   -6.0002    9.2618 C   0  0  0  0  0  0  0  0  0  0  0  0
    2.4185   -7.3113    8.1649 Cl  0  0  0  0  0  0  0  0  0  0  0  0
    3.6124   -4.6192   12.7572 S   0  0  0  0  0  6  0  0  0  0  0  0
    3.8567   -3.1474   12.9587 O   0  0  0  0  0  0  0  0  0  0  0  0
    2.8793   -5.1684   13.9453 O   0  0  0  0  0  0  0  0  0  0  0  0
    5.1797   -5.4497   12.5944 C   0  0  0  0  0  0  0  0  0  0  0  0
    1.0505   -5.6375    6.5918 N   0  0  0  0  0  0  0  0  0  0  0  0
    0.4113   -5.7897    5.3249 C   0  0  0  0  0  0  0  0  0  0  0  0
   -0.9744   -5.7974    5.2183 C   0  0  0  0  0  0  0  0  0  0  0  0
   -1.5529   -5.9418    3.9842 C   0  0  0  0  0  0  0  0  0  0  0  0
   -0.7989   -6.0832    2.8126 C   0  0  0  0  0  0  0  0  0  0  0  0
    0.5468   -6.0761    2.9008 C   0  0  0  0  0  0  0  0  0  0  0  0
    1.1389   -5.9283    4.1729 C   0  0  0  0  0  0  0  0  0  0  0  0
    1.4701   -6.2405    1.7880 C   0  0  0  0  0  0  0  0  0  0  0  0
    1.1288   -6.5659    0.5033 C   0  0  0  0  0  0  0  0  0  0  0  0
    2.0494   -6.6729   -0.5372 C   0  0  0  0  0  0  0  0  0  0  0  0
    3.3797   -6.4439   -0.2903 C   0  0  0  0  0  0  0  0  0  0  0  0
    3.7250   -6.1136    1.0099 C   0  0  0  0  0  0  0  0  0  0  0  0
    2.8092   -6.0220    1.9792 N   0  0  0  0  0  0  0  0  0  0  0  0
   -1.6726   -6.3027    1.3261 Cl  0  0  0  0  0  0  0  0  0  0  0  0
  1  2  2  0
  2  3  1  0
  3  4  2  0
  4  5  1  0
  5  6  2  0
  6  7  1  0
  7  8  2  0
  8  9  1  0
  6 10  1  0
 10 11  2  0
 10 12  2  0
 10 13  1  0
  2 14  1  0
 14 15  1  0
 15 16  2  0
 16 17  1  0
 17 18  2  0
 18 19  1  0
 19 20  2  0
 19 21  1  0
 21 22  2  0
 22 23  1  0
 23 24  2  0
 24 25  1  0
 25 26  2  0
 18 27  1  0
  8  3  1  0
 20 15  1  0
 26 21  1  0
M  END
$$$$
