
     RDKit          3D

 27 29  0  0  0  0  0  0  0  0999 V2000
    0.0983   -5.1216   12.9727 O   0  0  0  0  0  0  0  0  0  0  0  0
    1.2146   -5.3229   13.5546 C   0  0  0  0  0  0  0  0  0  0  0  0
    1.3466   -5.3910   14.9967 C   0  0  0  0  0  0  0  0  0  0  0  0
    2.0763   -4.4787   15.7164 C   0  0  0  0  0  0  0  0  0  0  0  0
    2.2031   -4.5460   17.0840 C   0  0  0  0  0  0  0  0  0  0  0  0
    1.5751   -5.5657   17.7555 C   0  0  0  0  0  0  0  0  0  0  0  0
    0.8244   -6.5129   17.0643 C   0  0  0  0  0  0  0  0  0  0  0  0
    0.7223   -6.4062   15.6743 C   0  0  0  0  0  0  0  0  0  0  0  0
   -0.2071   -7.5743   14.7948 Cl  0  0  0  0  0  0  0  0  0  0  0  0
    1.7545   -5.6323   19.5003 S   0  0  0  0  0  6  0  0  0  0  0  0
    2.6221   -6.8135   19.8446 O   0  0  0  0  0  0  0  0  0  0  0  0
    2.3917   -4.3788   20.0232 O   0  0  0  0  0  0  0  0  0  0  0  0
    0.1579   -5.8450   20.2607 C   0  0  0  0  0  0  0  0  0  0  0  0
    2.3855   -5.4891   12.7726 N   0  0  0  0  0  0  0  0  0  0  0  0
    2.4075   -5.3867   11.3492 C   0  0  0  0  0  0  0  0  0  0  0  0
    1.2337   -5.4533   10.6083 C   0  0  0  0  0  0  0  0  0  0  0  0
    1.2935   -5.3471    9.2431 C   0  0  0  0  0  0  0  0  0  0  0  0
    2.5005   -5.1721    8.5551 C   0  0  0  0  0  0  0  0  0  0  0  0
    3.6474   -5.1044    9.2613 C   0  0  0  0  0  0  0  0  0  0  0  0
    3.5822   -5.2150   10.6663 C   0  0  0  0  0  0  0  0  0  0  0  0
    4.9814   -4.9549    8.6992 C   0  0  0  0  0  0  0  0  0  0  0  0
    5.4870   -5.6521    7.6356 C   0  0  0  0  0  0  0  0  0  0  0  0
    6.7603   -5.4432    7.1097 C   0  0  0  0  0  0  0  0  0  0  0  0
    7.5755   -4.4910    7.6682 C   0  0  0  0  0  0  0  0  0  0  0  0
    7.0633   -3.7846    8.7441 C   0  0  0  0  0  0  0  0  0  0  0  0
    5.8353   -4.0173    9.2179 N   0  0  0  0  0  0  0  0  0  0  0  0
    2.4237   -5.0992    6.8201 Cl  0  0  0  0  0  0  0  0  0  0  0  0
  1  2  2  0
  2  3  1  0
  3  4  2  0
  4  5  1  0
  5  6  2  0
  6  7  1  0
  7  8  2  0
  8  9  1  0
  6 10  1  0
 10 11  2  0
 10 12  2  0
 10 13  1  0
  2 14  1  0
 14 15  1  0
 15 16  2  0
 16 17  1  0
 17 18  2  0
 18 19  1  0
 19 20  2  0
 19 21  1  0
 21 22  2  0
 22 23  1  0
 23 24  2  0
 24 25  1  0
 25 26  2  0
 18 27  1  0
  8  3  1  0
 20 15  1  0
 26 21  1  0
M  END
$$$$
