
     RDKit          3D

 27 29  0  0  0  0  0  0  0  0999 V2000
    2.9613   -2.7710   15.1437 O   0  0  0  0  0  0  0  0  0  0  0  0
    2.4820   -3.9301   15.3718 C   0  0  0  0  0  0  0  0  0  0  0  0
    2.1954   -4.4115   16.7089 C   0  0  0  0  0  0  0  0  0  0  0  0
    1.4407   -3.6983   17.6057 C   0  0  0  0  0  0  0  0  0  0  0  0
    1.1720   -4.1547   18.8747 C   0  0  0  0  0  0  0  0  0  0  0  0
    1.6787   -5.3715   19.2594 C   0  0  0  0  0  0  0  0  0  0  0  0
    2.4495   -6.1281   18.3807 C   0  0  0  0  0  0  0  0  0  0  0  0
    2.6978   -5.6256   17.1002 C   0  0  0  0  0  0  0  0  0  0  0  0
    3.6545   -6.5511   15.9912 Cl  0  0  0  0  0  0  0  0  0  0  0  0
    1.3249   -5.9310   20.8850 S   0  0  0  0  0  6  0  0  0  0  0  0
   -0.1010   -5.5743   21.2111 O   0  0  0  0  0  0  0  0  0  0  0  0
    1.5024   -7.4168   20.9926 O   0  0  0  0  0  0  0  0  0  0  0  0
    2.4048   -5.1213   22.0473 C   0  0  0  0  0  0  0  0  0  0  0  0
    2.2122   -4.7967   14.2825 N   0  0  0  0  0  0  0  0  0  0  0  0
    2.3956   -4.4301   12.9154 C   0  0  0  0  0  0  0  0  0  0  0  0
    3.1650   -3.3265   12.5671 C   0  0  0  0  0  0  0  0  0  0  0  0
    3.3220   -3.0072   11.2435 C   0  0  0  0  0  0  0  0  0  0  0  0
    2.7338   -3.7541   10.2153 C   0  0  0  0  0  0  0  0  0  0  0  0
    1.9854   -4.8285   10.5385 C   0  0  0  0  0  0  0  0  0  0  0  0
    1.8252   -5.1536   11.9021 C   0  0  0  0  0  0  0  0  0  0  0  0
    1.2852   -5.6883    9.5961 C   0  0  0  0  0  0  0  0  0  0  0  0
    0.6066   -5.2734    8.4824 C   0  0  0  0  0  0  0  0  0  0  0  0
   -0.0155   -6.1424    7.5883 C   0  0  0  0  0  0  0  0  0  0  0  0
    0.0394   -7.4955    7.8102 C   0  0  0  0  0  0  0  0  0  0  0  0
    0.7273   -7.9154    8.9369 C   0  0  0  0  0  0  0  0  0  0  0  0
    1.3098   -7.0472    9.7697 N   0  0  0  0  0  0  0  0  0  0  0  0
    2.9848   -3.2010    8.5866 Cl  0  0  0  0  0  0  0  0  0  0  0  0
  1  2  2  0
  2  3  1  0
  3  4  2  0
  4  5  1  0
  5  6  2  0
  6  7  1  0
  7  8  2  0
  8  9  1  0
  6 10  1  0
 10 11  2  0
 10 12  2  0
 10 13  1  0
  2 14  1  0
 14 15  1  0
 15 16  2  0
 16 17  1  0
 17 18  2  0
 18 19  1  0
 19 20  2  0
 19 21  1  0
 21 22  2  0
 22 23  1  0
 23 24  2  0
 24 25  1  0
 25 26  2  0
 18 27  1  0
  8  3  1  0
 20 15  1  0
 26 21  1  0
M  END
$$$$
