
     RDKit          3D

 27 29  0  0  0  0  0  0  0  0999 V2000
   -0.7139   -6.1434    7.2269 O   0  0  0  0  0  0  0  0  0  0  0  0
    0.2597   -5.7816    6.4876 C   0  0  0  0  0  0  0  0  0  0  0  0
    0.2836   -6.0073    5.0558 C   0  0  0  0  0  0  0  0  0  0  0  0
    1.3863   -6.4977    4.4029 C   0  0  0  0  0  0  0  0  0  0  0  0
    1.4088   -6.7086    3.0442 C   0  0  0  0  0  0  0  0  0  0  0  0
    0.2841   -6.4171    2.3125 C   0  0  0  0  0  0  0  0  0  0  0  0
   -0.8568   -5.9178    2.9350 C   0  0  0  0  0  0  0  0  0  0  0  0
   -0.8355   -5.7187    4.3184 C   0  0  0  0  0  0  0  0  0  0  0  0
   -2.2446   -5.0983    5.1129 Cl  0  0  0  0  0  0  0  0  0  0  0  0
    0.3385   -6.6916    0.5797 S   0  0  0  0  0  6  0  0  0  0  0  0
   -0.3945   -5.5678   -0.1032 O   0  0  0  0  0  0  0  0  0  0  0  0
    1.7546   -6.7333    0.0863 O   0  0  0  0  0  0  0  0  0  0  0  0
   -0.4685   -8.2309    0.1898 C   0  0  0  0  0  0  0  0  0  0  0  0
    1.3733   -5.1300    7.0754 N   0  0  0  0  0  0  0  0  0  0  0  0
    1.4248   -4.7316    8.4449 C   0  0  0  0  0  0  0  0  0  0  0  0
    2.0399   -3.5440    8.8225 C   0  0  0  0  0  0  0  0  0  0  0  0
    2.0664   -3.1921   10.1469 C   0  0  0  0  0  0  0  0  0  0  0  0
    1.4934   -3.9869   11.1473 C   0  0  0  0  0  0  0  0  0  0  0  0
    0.8919   -5.1415   10.7953 C   0  0  0  0  0  0  0  0  0  0  0  0
    0.8673   -5.5010    9.4312 C   0  0  0  0  0  0  0  0  0  0  0  0
    0.2771   -6.0906   11.7113 C   0  0  0  0  0  0  0  0  0  0  0  0
   -0.5855   -5.7815   12.7279 C   0  0  0  0  0  0  0  0  0  0  0  0
   -1.1789   -6.7337   13.5541 C   0  0  0  0  0  0  0  0  0  0  0  0
   -0.9027   -8.0640   13.3610 C   0  0  0  0  0  0  0  0  0  0  0  0
   -0.0304   -8.3769   12.3314 C   0  0  0  0  0  0  0  0  0  0  0  0
    0.5177   -7.4312   11.5620 N   0  0  0  0  0  0  0  0  0  0  0  0
    1.6453   -3.4329   12.7878 Cl  0  0  0  0  0  0  0  0  0  0  0  0
  1  2  2  0
  2  3  1  0
  3  4  2  0
  4  5  1  0
  5  6  2  0
  6  7  1  0
  7  8  2  0
  8  9  1  0
  6 10  1  0
 10 11  2  0
 10 12  2  0
 10 13  1  0
  2 14  1  0
 14 15  1  0
 15 16  2  0
 16 17  1  0
 17 18  2  0
 18 19  1  0
 19 20  2  0
 19 21  1  0
 21 22  2  0
 22 23  1  0
 23 24  2  0
 24 25  1  0
 25 26  2  0
 18 27  1  0
  8  3  1  0
 20 15  1  0
 26 21  1  0
M  END
$$$$
