
     RDKit          3D

 27 29  0  0  0  0  0  0  0  0999 V2000
    3.5884   -5.9344   10.2099 O   0  0  0  0  0  0  0  0  0  0  0  0
    2.4200   -5.5985   10.5937 C   0  0  0  0  0  0  0  0  0  0  0  0
    2.1302   -5.1794   11.9509 C   0  0  0  0  0  0  0  0  0  0  0  0
    2.3150   -3.8900   12.3821 C   0  0  0  0  0  0  0  0  0  0  0  0
    2.0424   -3.4943   13.6705 C   0  0  0  0  0  0  0  0  0  0  0  0
    1.5669   -4.4257   14.5602 C   0  0  0  0  0  0  0  0  0  0  0  0
    1.3647   -5.7453   14.1645 C   0  0  0  0  0  0  0  0  0  0  0  0
    1.6550   -6.1037   12.8450 C   0  0  0  0  0  0  0  0  0  0  0  0
    1.4105   -7.7403   12.3320 Cl  0  0  0  0  0  0  0  0  0  0  0  0
    1.2297   -3.8973   16.1997 S   0  0  0  0  0  6  0  0  0  0  0  0
    1.8765   -2.5541   16.4091 O   0  0  0  0  0  0  0  0  0  0  0  0
   -0.2476   -3.7791   16.4331 O   0  0  0  0  0  0  0  0  0  0  0  0
    1.9198   -5.0597   17.3595 C   0  0  0  0  0  0  0  0  0  0  0  0
    1.3482   -5.6309    9.6661 N   0  0  0  0  0  0  0  0  0  0  0  0
    1.4979   -6.0045    8.2968 C   0  0  0  0  0  0  0  0  0  0  0  0
    2.6742   -6.5846    7.8373 C   0  0  0  0  0  0  0  0  0  0  0  0
    2.7800   -6.9340    6.5163 C   0  0  0  0  0  0  0  0  0  0  0  0
    1.7417   -6.7294    5.5992 C   0  0  0  0  0  0  0  0  0  0  0  0
    0.5939   -6.1686    6.0313 C   0  0  0  0  0  0  0  0  0  0  0  0
    0.4888   -5.8093    7.3917 C   0  0  0  0  0  0  0  0  0  0  0  0
   -0.5639   -5.8627    5.2045 C   0  0  0  0  0  0  0  0  0  0  0  0
   -1.0899   -6.6676    4.2306 C   0  0  0  0  0  0  0  0  0  0  0  0
   -2.2265   -6.3450    3.4920 C   0  0  0  0  0  0  0  0  0  0  0  0
   -2.8770   -5.1610    3.7331 C   0  0  0  0  0  0  0  0  0  0  0  0
   -2.3451   -4.3468    4.7196 C   0  0  0  0  0  0  0  0  0  0  0  0
   -1.2514   -4.6945    5.4047 N   0  0  0  0  0  0  0  0  0  0  0  0
    2.0387   -7.1818    3.9474 Cl  0  0  0  0  0  0  0  0  0  0  0  0
  1  2  2  0
  2  3  1  0
  3  4  2  0
  4  5  1  0
  5  6  2  0
  6  7  1  0
  7  8  2  0
  8  9  1  0
  6 10  1  0
 10 11  2  0
 10 12  2  0
 10 13  1  0
  2 14  1  0
 14 15  1  0
 15 16  2  0
 16 17  1  0
 17 18  2  0
 18 19  1  0
 19 20  2  0
 19 21  1  0
 21 22  2  0
 22 23  1  0
 23 24  2  0
 24 25  1  0
 25 26  2  0
 18 27  1  0
  8  3  1  0
 20 15  1  0
 26 21  1  0
M  END
$$$$
