
     RDKit          3D

 27 29  0  0  0  0  0  0  0  0999 V2000
   -1.0939   -4.5165    8.1543 O   0  0  0  0  0  0  0  0  0  0  0  0
    0.1075   -4.9352    8.2349 C   0  0  0  0  0  0  0  0  0  0  0  0
    0.8737   -4.8890    9.4647 C   0  0  0  0  0  0  0  0  0  0  0  0
    1.6935   -5.9142    9.8641 C   0  0  0  0  0  0  0  0  0  0  0  0
    2.4175   -5.8705   11.0324 C   0  0  0  0  0  0  0  0  0  0  0  0
    2.3162   -4.7576   11.8302 C   0  0  0  0  0  0  0  0  0  0  0  0
    1.4960   -3.6942   11.4626 C   0  0  0  0  0  0  0  0  0  0  0  0
    0.7779   -3.7811   10.2665 C   0  0  0  0  0  0  0  0  0  0  0  0
   -0.2485   -2.4691    9.7903 Cl  0  0  0  0  0  0  0  0  0  0  0  0
    3.2475   -4.7267   13.3177 S   0  0  0  0  0  6  0  0  0  0  0  0
    2.4102   -4.0815   14.3898 O   0  0  0  0  0  0  0  0  0  0  0  0
    3.6206   -6.1149   13.7471 O   0  0  0  0  0  0  0  0  0  0  0  0
    4.7271   -3.7639   13.0803 C   0  0  0  0  0  0  0  0  0  0  0  0
    0.7348   -5.4714    7.0820 N   0  0  0  0  0  0  0  0  0  0  0  0
    0.0993   -5.5675    5.8077 C   0  0  0  0  0  0  0  0  0  0  0  0
   -1.2071   -5.1304    5.6243 C   0  0  0  0  0  0  0  0  0  0  0  0
   -1.7832   -5.2350    4.3851 C   0  0  0  0  0  0  0  0  0  0  0  0
   -1.1040   -5.7692    3.2831 C   0  0  0  0  0  0  0  0  0  0  0  0
    0.1648   -6.1961    3.4461 C   0  0  0  0  0  0  0  0  0  0  0  0
    0.7544   -6.0878    4.7233 C   0  0  0  0  0  0  0  0  0  0  0  0
    0.9949   -6.8001    2.4147 C   0  0  0  0  0  0  0  0  0  0  0  0
    1.0275   -6.4370    1.0956 C   0  0  0  0  0  0  0  0  0  0  0  0
    1.8711   -7.0222    0.1536 C   0  0  0  0  0  0  0  0  0  0  0  0
    2.7293   -8.0204    0.5410 C   0  0  0  0  0  0  0  0  0  0  0  0
    2.6971   -8.3873    1.8765 C   0  0  0  0  0  0  0  0  0  0  0  0
    1.8710   -7.7997    2.7476 N   0  0  0  0  0  0  0  0  0  0  0  0
   -1.9800   -5.8793    1.7858 Cl  0  0  0  0  0  0  0  0  0  0  0  0
  1  2  2  0
  2  3  1  0
  3  4  2  0
  4  5  1  0
  5  6  2  0
  6  7  1  0
  7  8  2  0
  8  9  1  0
  6 10  1  0
 10 11  2  0
 10 12  2  0
 10 13  1  0
  2 14  1  0
 14 15  1  0
 15 16  2  0
 16 17  1  0
 17 18  2  0
 18 19  1  0
 19 20  2  0
 19 21  1  0
 21 22  2  0
 22 23  1  0
 23 24  2  0
 24 25  1  0
 25 26  2  0
 18 27  1  0
  8  3  1  0
 20 15  1  0
 26 21  1  0
M  END
$$$$
