
     RDKit          3D

 27 29  0  0  0  0  0  0  0  0999 V2000
    1.5776   -6.1103   13.8330 O   0  0  0  0  0  0  0  0  0  0  0  0
    1.1399   -5.1865   14.5947 C   0  0  0  0  0  0  0  0  0  0  0  0
    1.3829   -5.1669   16.0238 C   0  0  0  0  0  0  0  0  0  0  0  0
    0.4245   -4.7930   16.9317 C   0  0  0  0  0  0  0  0  0  0  0  0
    0.6571   -4.7721   18.2868 C   0  0  0  0  0  0  0  0  0  0  0  0
    1.8965   -5.1395   18.7494 C   0  0  0  0  0  0  0  0  0  0  0  0
    2.8980   -5.5260   17.8626 C   0  0  0  0  0  0  0  0  0  0  0  0
    2.6179   -5.5326   16.4932 C   0  0  0  0  0  0  0  0  0  0  0  0
    3.8499   -6.0101   15.3726 Cl  0  0  0  0  0  0  0  0  0  0  0  0
    2.1701   -5.1015   20.4828 S   0  0  0  0  0  6  0  0  0  0  0  0
    0.8337   -5.1206   21.1758 O   0  0  0  0  0  0  0  0  0  0  0  0
    2.9764   -6.2865   20.9257 O   0  0  0  0  0  0  0  0  0  0  0  0
    3.0293   -3.6045   20.9226 C   0  0  0  0  0  0  0  0  0  0  0  0
    0.3820   -4.1265   14.0359 N   0  0  0  0  0  0  0  0  0  0  0  0
    0.0269   -4.0495   12.6557 C   0  0  0  0  0  0  0  0  0  0  0  0
   -0.8873   -3.1058   12.2031 C   0  0  0  0  0  0  0  0  0  0  0  0
   -1.2009   -3.0591   10.8697 C   0  0  0  0  0  0  0  0  0  0  0  0
   -0.6327   -3.9314    9.9330 C   0  0  0  0  0  0  0  0  0  0  0  0
    0.2571   -4.8515   10.3578 C   0  0  0  0  0  0  0  0  0  0  0  0
    0.5768   -4.8973   11.7312 C   0  0  0  0  0  0  0  0  0  0  0  0
    0.9128   -5.8458    9.5216 C   0  0  0  0  0  0  0  0  0  0  0  0
    1.2457   -5.6922    8.2031 C   0  0  0  0  0  0  0  0  0  0  0  0
    1.9099   -6.6626    7.4557 C   0  0  0  0  0  0  0  0  0  0  0  0
    2.2639   -7.8487    8.0483 C   0  0  0  0  0  0  0  0  0  0  0  0
    1.9278   -8.0037    9.3833 C   0  0  0  0  0  0  0  0  0  0  0  0
    1.2894   -7.0465   10.0636 N   0  0  0  0  0  0  0  0  0  0  0  0
   -1.1618   -3.7822    8.2840 Cl  0  0  0  0  0  0  0  0  0  0  0  0
  1  2  2  0
  2  3  1  0
  3  4  2  0
  4  5  1  0
  5  6  2  0
  6  7  1  0
  7  8  2  0
  8  9  1  0
  6 10  1  0
 10 11  2  0
 10 12  2  0
 10 13  1  0
  2 14  1  0
 14 15  1  0
 15 16  2  0
 16 17  1  0
 17 18  2  0
 18 19  1  0
 19 20  2  0
 19 21  1  0
 21 22  2  0
 22 23  1  0
 23 24  2  0
 24 25  1  0
 25 26  2  0
 18 27  1  0
  8  3  1  0
 20 15  1  0
 26 21  1  0
M  END
$$$$
