
     RDKit          3D

 27 29  0  0  0  0  0  0  0  0999 V2000
    1.0186   -4.3893   13.4944 O   0  0  0  0  0  0  0  0  0  0  0  0
    1.8405   -5.0712   14.1906 C   0  0  0  0  0  0  0  0  0  0  0  0
    1.8330   -5.0670   15.6403 C   0  0  0  0  0  0  0  0  0  0  0  0
    2.9761   -5.2070   16.3861 C   0  0  0  0  0  0  0  0  0  0  0  0
    2.9673   -5.2057   17.7612 C   0  0  0  0  0  0  0  0  0  0  0  0
    1.7680   -5.0588   18.4132 C   0  0  0  0  0  0  0  0  0  0  0  0
    0.5839   -4.9137   17.6952 C   0  0  0  0  0  0  0  0  0  0  0  0
    0.6393   -4.9207   16.2985 C   0  0  0  0  0  0  0  0  0  0  0  0
   -0.8223   -4.7415   15.3858 Cl  0  0  0  0  0  0  0  0  0  0  0  0
    1.7821   -5.0637   20.1685 S   0  0  0  0  0  6  0  0  0  0  0  0
    0.5646   -5.8057   20.6519 O   0  0  0  0  0  0  0  0  0  0  0  0
    3.0154   -5.7370   20.6941 O   0  0  0  0  0  0  0  0  0  0  0  0
    1.7190   -3.3899   20.7744 C   0  0  0  0  0  0  0  0  0  0  0  0
    2.8088   -5.8726   13.5344 N   0  0  0  0  0  0  0  0  0  0  0  0
    2.9917   -5.8926   12.1191 C   0  0  0  0  0  0  0  0  0  0  0  0
    4.2578   -6.0291   11.5627 C   0  0  0  0  0  0  0  0  0  0  0  0
    4.3943   -6.0482   10.1990 C   0  0  0  0  0  0  0  0  0  0  0  0
    3.3001   -5.9351    9.3325 C   0  0  0  0  0  0  0  0  0  0  0  0
    2.0653   -5.8034    9.8585 C   0  0  0  0  0  0  0  0  0  0  0  0
    1.9286   -5.7832   11.2626 C   0  0  0  0  0  0  0  0  0  0  0  0
    0.8333   -5.6460    9.1002 C   0  0  0  0  0  0  0  0  0  0  0  0
    0.6943   -4.9495    7.9303 C   0  0  0  0  0  0  0  0  0  0  0  0
   -0.5018   -4.8616    7.2208 C   0  0  0  0  0  0  0  0  0  0  0  0
   -1.6196   -5.4996    7.6967 C   0  0  0  0  0  0  0  0  0  0  0  0
   -1.4786   -6.2055    8.8803 C   0  0  0  0  0  0  0  0  0  0  0  0
   -0.3118   -6.2637    9.5299 N   0  0  0  0  0  0  0  0  0  0  0  0
    3.6336   -5.9301    7.6266 Cl  0  0  0  0  0  0  0  0  0  0  0  0
  1  2  2  0
  2  3  1  0
  3  4  2  0
  4  5  1  0
  5  6  2  0
  6  7  1  0
  7  8  2  0
  8  9  1  0
  6 10  1  0
 10 11  2  0
 10 12  2  0
 10 13  1  0
  2 14  1  0
 14 15  1  0
 15 16  2  0
 16 17  1  0
 17 18  2  0
 18 19  1  0
 19 20  2  0
 19 21  1  0
 21 22  2  0
 22 23  1  0
 23 24  2  0
 24 25  1  0
 25 26  2  0
 18 27  1  0
  8  3  1  0
 20 15  1  0
 26 21  1  0
M  END
$$$$
