
     RDKit          3D

 27 29  0  0  0  0  0  0  0  0999 V2000
    1.9956   -5.1761    8.2256 O   0  0  0  0  0  0  0  0  0  0  0  0
    1.1707   -4.8859    9.1533 C   0  0  0  0  0  0  0  0  0  0  0  0
    1.5479   -4.8397   10.5524 C   0  0  0  0  0  0  0  0  0  0  0  0
    0.9406   -4.0032   11.4547 C   0  0  0  0  0  0  0  0  0  0  0  0
    1.3011   -3.9582   12.7809 C   0  0  0  0  0  0  0  0  0  0  0  0
    2.3080   -4.7824   13.2193 C   0  0  0  0  0  0  0  0  0  0  0  0
    2.9509   -5.6469   12.3373 C   0  0  0  0  0  0  0  0  0  0  0  0
    2.5522   -5.6597   10.9976 C   0  0  0  0  0  0  0  0  0  0  0  0
    3.3391   -6.7280    9.8835 Cl  0  0  0  0  0  0  0  0  0  0  0  0
    2.7525   -4.7043   14.9156 S   0  0  0  0  0  6  0  0  0  0  0  0
    3.6964   -3.5472   15.1073 O   0  0  0  0  0  0  0  0  0  0  0  0
    1.5422   -4.5065   15.7797 O   0  0  0  0  0  0  0  0  0  0  0  0
    3.5776   -6.2098   15.3902 C   0  0  0  0  0  0  0  0  0  0  0  0
   -0.1758   -4.5936    8.8190 N   0  0  0  0  0  0  0  0  0  0  0  0
   -0.6407   -4.4286    7.4798 C   0  0  0  0  0  0  0  0  0  0  0  0
   -1.6377   -3.5094    7.1761 C   0  0  0  0  0  0  0  0  0  0  0  0
   -2.0560   -3.3758    5.8777 C   0  0  0  0  0  0  0  0  0  0  0  0
   -1.5154   -4.1344    4.8321 C   0  0  0  0  0  0  0  0  0  0  0  0
   -0.5462   -5.0294    5.1119 C   0  0  0  0  0  0  0  0  0  0  0  0
   -0.1187   -5.1649    6.4497 C   0  0  0  0  0  0  0  0  0  0  0  0
    0.0961   -5.9120    4.1495 C   0  0  0  0  0  0  0  0  0  0  0  0
   -0.4253   -7.0774    3.6566 C   0  0  0  0  0  0  0  0  0  0  0  0
    0.2144   -7.8683    2.7044 C   0  0  0  0  0  0  0  0  0  0  0  0
    1.4365   -7.4820    2.2140 C   0  0  0  0  0  0  0  0  0  0  0  0
    1.9637   -6.3018    2.7122 C   0  0  0  0  0  0  0  0  0  0  0  0
    1.3162   -5.5728    3.6265 N   0  0  0  0  0  0  0  0  0  0  0  0
   -2.1784   -3.8868    3.2445 Cl  0  0  0  0  0  0  0  0  0  0  0  0
  1  2  2  0
  2  3  1  0
  3  4  2  0
  4  5  1  0
  5  6  2  0
  6  7  1  0
  7  8  2  0
  8  9  1  0
  6 10  1  0
 10 11  2  0
 10 12  2  0
 10 13  1  0
  2 14  1  0
 14 15  1  0
 15 16  2  0
 16 17  1  0
 17 18  2  0
 18 19  1  0
 19 20  2  0
 19 21  1  0
 21 22  2  0
 22 23  1  0
 23 24  2  0
 24 25  1  0
 25 26  2  0
 18 27  1  0
  8  3  1  0
 20 15  1  0
 26 21  1  0
M  END
$$$$
