
     RDKit          3D

 27 29  0  0  0  0  0  0  0  0999 V2000
    1.5445   -4.2760   13.8199 O   0  0  0  0  0  0  0  0  0  0  0  0
    1.3680   -5.3779   14.4363 C   0  0  0  0  0  0  0  0  0  0  0  0
    1.3465   -5.4731   15.8827 C   0  0  0  0  0  0  0  0  0  0  0  0
    0.3083   -6.0490   16.5706 C   0  0  0  0  0  0  0  0  0  0  0  0
    0.2877   -6.1361   17.9427 C   0  0  0  0  0  0  0  0  0  0  0  0
    1.3473   -5.6270   18.6522 C   0  0  0  0  0  0  0  0  0  0  0  0
    2.4216   -5.0343   17.9941 C   0  0  0  0  0  0  0  0  0  0  0  0
    2.4009   -4.9672   16.5980 C   0  0  0  0  0  0  0  0  0  0  0  0
    3.7277   -4.2338   15.7594 Cl  0  0  0  0  0  0  0  0  0  0  0  0
    1.2965   -5.7472   20.4026 S   0  0  0  0  0  6  0  0  0  0  0  0
    1.4641   -7.1936   20.7853 O   0  0  0  0  0  0  0  0  0  0  0  0
    2.3930   -4.9373   21.0290 O   0  0  0  0  0  0  0  0  0  0  0  0
   -0.2793   -5.1692   20.9989 C   0  0  0  0  0  0  0  0  0  0  0  0
    1.1833   -6.5692   13.6901 N   0  0  0  0  0  0  0  0  0  0  0  0
    0.9651   -6.5938   12.2799 C   0  0  0  0  0  0  0  0  0  0  0  0
   -0.1315   -7.2523   11.7365 C   0  0  0  0  0  0  0  0  0  0  0  0
   -0.3107   -7.2512   10.3776 C   0  0  0  0  0  0  0  0  0  0  0  0
    0.5738   -6.6074    9.5034 C   0  0  0  0  0  0  0  0  0  0  0  0
    1.6416   -5.9633   10.0168 C   0  0  0  0  0  0  0  0  0  0  0  0
    1.8234   -5.9673   11.4160 C   0  0  0  0  0  0  0  0  0  0  0  0
    2.6659   -5.2733    9.2473 C   0  0  0  0  0  0  0  0  0  0  0  0
    3.1066   -3.9955    9.4617 C   0  0  0  0  0  0  0  0  0  0  0  0
    4.1204   -3.3930    8.7196 C   0  0  0  0  0  0  0  0  0  0  0  0
    4.7306   -4.0961    7.7113 C   0  0  0  0  0  0  0  0  0  0  0  0
    4.2852   -5.3899    7.4950 C   0  0  0  0  0  0  0  0  0  0  0  0
    3.3085   -5.9298    8.2306 N   0  0  0  0  0  0  0  0  0  0  0  0
    0.2409   -6.7306    7.8018 Cl  0  0  0  0  0  0  0  0  0  0  0  0
  1  2  2  0
  2  3  1  0
  3  4  2  0
  4  5  1  0
  5  6  2  0
  6  7  1  0
  7  8  2  0
  8  9  1  0
  6 10  1  0
 10 11  2  0
 10 12  2  0
 10 13  1  0
  2 14  1  0
 14 15  1  0
 15 16  2  0
 16 17  1  0
 17 18  2  0
 18 19  1  0
 19 20  2  0
 19 21  1  0
 21 22  2  0
 22 23  1  0
 23 24  2  0
 24 25  1  0
 25 26  2  0
 18 27  1  0
  8  3  1  0
 20 15  1  0
 26 21  1  0
M  END
$$$$
