
     RDKit          3D

 27 29  0  0  0  0  0  0  0  0999 V2000
    2.4924   -7.2628    9.3100 O   0  0  0  0  0  0  0  0  0  0  0  0
    2.0732   -6.0637    9.4181 C   0  0  0  0  0  0  0  0  0  0  0  0
    2.2739   -5.2670   10.6126 C   0  0  0  0  0  0  0  0  0  0  0  0
    2.3087   -3.8956   10.5896 C   0  0  0  0  0  0  0  0  0  0  0  0
    2.5020   -3.1411   11.7228 C   0  0  0  0  0  0  0  0  0  0  0  0
    2.6667   -3.7852   12.9242 C   0  0  0  0  0  0  0  0  0  0  0  0
    2.6382   -5.1756   12.9928 C   0  0  0  0  0  0  0  0  0  0  0  0
    2.4390   -5.9029   11.8159 C   0  0  0  0  0  0  0  0  0  0  0  0
    2.4000   -7.6339   11.8789 Cl  0  0  0  0  0  0  0  0  0  0  0  0
    2.9152   -2.8007   14.3559 S   0  0  0  0  0  6  0  0  0  0  0  0
    4.2600   -2.1327   14.2464 O   0  0  0  0  0  0  0  0  0  0  0  0
    1.8487   -1.7528   14.4794 O   0  0  0  0  0  0  0  0  0  0  0  0
    2.8984   -3.8346   15.8063 C   0  0  0  0  0  0  0  0  0  0  0  0
    1.3797   -5.4699    8.3333 N   0  0  0  0  0  0  0  0  0  0  0  0
    1.1541   -6.1242    7.0851 C   0  0  0  0  0  0  0  0  0  0  0  0
    1.3452   -7.4941    6.9501 C   0  0  0  0  0  0  0  0  0  0  0  0
    1.1147   -8.0885    5.7367 C   0  0  0  0  0  0  0  0  0  0  0  0
    0.6899   -7.3664    4.6146 C   0  0  0  0  0  0  0  0  0  0  0  0
    0.4992   -6.0365    4.7314 C   0  0  0  0  0  0  0  0  0  0  0  0
    0.7383   -5.4278    5.9817 C   0  0  0  0  0  0  0  0  0  0  0  0
    0.0899   -5.1415    3.6595 C   0  0  0  0  0  0  0  0  0  0  0  0
   -0.9243   -5.3670    2.7687 C   0  0  0  0  0  0  0  0  0  0  0  0
   -1.3033   -4.4583    1.7828 C   0  0  0  0  0  0  0  0  0  0  0  0
   -0.6414   -3.2610    1.6754 C   0  0  0  0  0  0  0  0  0  0  0  0
    0.3845   -3.0322    2.5777 C   0  0  0  0  0  0  0  0  0  0  0  0
    0.7162   -3.9322    3.5086 N   0  0  0  0  0  0  0  0  0  0  0  0
    0.4826   -8.2498    3.1320 Cl  0  0  0  0  0  0  0  0  0  0  0  0
  1  2  2  0
  2  3  1  0
  3  4  2  0
  4  5  1  0
  5  6  2  0
  6  7  1  0
  7  8  2  0
  8  9  1  0
  6 10  1  0
 10 11  2  0
 10 12  2  0
 10 13  1  0
  2 14  1  0
 14 15  1  0
 15 16  2  0
 16 17  1  0
 17 18  2  0
 18 19  1  0
 19 20  2  0
 19 21  1  0
 21 22  2  0
 22 23  1  0
 23 24  2  0
 24 25  1  0
 25 26  2  0
 18 27  1  0
  8  3  1  0
 20 15  1  0
 26 21  1  0
M  END
$$$$
