
     RDKit          3D

 27 29  0  0  0  0  0  0  0  0999 V2000
    4.1460   -5.9601   10.0911 O   0  0  0  0  0  0  0  0  0  0  0  0
    4.3703   -5.3535    8.9925 C   0  0  0  0  0  0  0  0  0  0  0  0
    5.7078   -5.0508    8.5222 C   0  0  0  0  0  0  0  0  0  0  0  0
    6.6345   -4.4003    9.2972 C   0  0  0  0  0  0  0  0  0  0  0  0
    7.9020   -4.1111    8.8490 C   0  0  0  0  0  0  0  0  0  0  0  0
    8.2538   -4.4880    7.5764 C   0  0  0  0  0  0  0  0  0  0  0  0
    7.3443   -5.1504    6.7563 C   0  0  0  0  0  0  0  0  0  0  0  0
    6.0666   -5.4241    7.2528 C   0  0  0  0  0  0  0  0  0  0  0  0
    4.9195   -6.2474    6.2488 Cl  0  0  0  0  0  0  0  0  0  0  0  0
    9.8760   -4.1049    7.0260 S   0  0  0  0  0  6  0  0  0  0  0  0
   10.8174   -4.2334    8.1939 O   0  0  0  0  0  0  0  0  0  0  0  0
   10.3079   -5.0393    5.9347 O   0  0  0  0  0  0  0  0  0  0  0  0
    9.9258   -2.4295    6.4234 C   0  0  0  0  0  0  0  0  0  0  0  0
    3.2762   -4.9515    8.1852 N   0  0  0  0  0  0  0  0  0  0  0  0
    1.9108   -5.1812    8.5314 C   0  0  0  0  0  0  0  0  0  0  0  0
    0.9146   -5.1682    7.5626 C   0  0  0  0  0  0  0  0  0  0  0  0
   -0.3853   -5.3969    7.9321 C   0  0  0  0  0  0  0  0  0  0  0  0
   -0.7568   -5.6462    9.2591 C   0  0  0  0  0  0  0  0  0  0  0  0
    0.1997   -5.6631   10.2096 C   0  0  0  0  0  0  0  0  0  0  0  0
    1.5366   -5.4263    9.8258 C   0  0  0  0  0  0  0  0  0  0  0  0
   -0.0223   -5.8770   11.6318 C   0  0  0  0  0  0  0  0  0  0  0  0
   -0.9655   -5.2502   12.4002 C   0  0  0  0  0  0  0  0  0  0  0  0
   -1.1641   -5.5199   13.7527 C   0  0  0  0  0  0  0  0  0  0  0  0
   -0.3862   -6.4628   14.3763 C   0  0  0  0  0  0  0  0  0  0  0  0
    0.5679   -7.0980   13.5982 C   0  0  0  0  0  0  0  0  0  0  0  0
    0.7257   -6.8084   12.3029 N   0  0  0  0  0  0  0  0  0  0  0  0
   -2.4496   -5.8733    9.5819 Cl  0  0  0  0  0  0  0  0  0  0  0  0
  1  2  2  0
  2  3  1  0
  3  4  2  0
  4  5  1  0
  5  6  2  0
  6  7  1  0
  7  8  2  0
  8  9  1  0
  6 10  1  0
 10 11  2  0
 10 12  2  0
 10 13  1  0
  2 14  1  0
 14 15  1  0
 15 16  2  0
 16 17  1  0
 17 18  2  0
 18 19  1  0
 19 20  2  0
 19 21  1  0
 21 22  2  0
 22 23  1  0
 23 24  2  0
 24 25  1  0
 25 26  2  0
 18 27  1  0
  8  3  1  0
 20 15  1  0
 26 21  1  0
M  END
$$$$
