
     RDKit          3D

 27 29  0  0  0  0  0  0  0  0999 V2000
   -1.2476   -4.5212    9.8354 O   0  0  0  0  0  0  0  0  0  0  0  0
   -0.1523   -5.0093    9.4025 C   0  0  0  0  0  0  0  0  0  0  0  0
    0.0071   -5.4988    8.0472 C   0  0  0  0  0  0  0  0  0  0  0  0
    0.7240   -6.6302    7.7492 C   0  0  0  0  0  0  0  0  0  0  0  0
    0.8769   -7.0919    6.4630 C   0  0  0  0  0  0  0  0  0  0  0  0
    0.2894   -6.3937    5.4371 C   0  0  0  0  0  0  0  0  0  0  0  0
   -0.4470   -5.2405    5.6949 C   0  0  0  0  0  0  0  0  0  0  0  0
   -0.5767   -4.8071    7.0175 C   0  0  0  0  0  0  0  0  0  0  0  0
   -1.4888   -3.3747    7.3604 Cl  0  0  0  0  0  0  0  0  0  0  0  0
    0.5016   -7.0011    3.8039 S   0  0  0  0  0  6  0  0  0  0  0  0
    1.9435   -6.8175    3.4117 O   0  0  0  0  0  0  0  0  0  0  0  0
    0.1457   -8.4561    3.7212 O   0  0  0  0  0  0  0  0  0  0  0  0
   -0.5264   -6.0766    2.6809 C   0  0  0  0  0  0  0  0  0  0  0  0
    0.9662   -5.0833   10.2706 N   0  0  0  0  0  0  0  0  0  0  0  0
    0.9373   -4.6676   11.6356 C   0  0  0  0  0  0  0  0  0  0  0  0
    0.0512   -3.6878   12.0671 C   0  0  0  0  0  0  0  0  0  0  0  0
    0.0494   -3.3169   13.3866 C   0  0  0  0  0  0  0  0  0  0  0  0
    0.9119   -3.8898   14.3294 C   0  0  0  0  0  0  0  0  0  0  0  0
    1.7763   -4.8428   13.9252 C   0  0  0  0  0  0  0  0  0  0  0  0
    1.7760   -5.2214   12.5660 C   0  0  0  0  0  0  0  0  0  0  0  0
    2.7539   -5.5135   14.7689 C   0  0  0  0  0  0  0  0  0  0  0  0
    2.9580   -6.8648   14.8427 C   0  0  0  0  0  0  0  0  0  0  0  0
    3.9363   -7.4562   15.6393 C   0  0  0  0  0  0  0  0  0  0  0  0
    4.7570   -6.6647   16.4031 C   0  0  0  0  0  0  0  0  0  0  0  0
    4.5511   -5.2969   16.3276 C   0  0  0  0  0  0  0  0  0  0  0  0
    3.5998   -4.7706   15.5500 N   0  0  0  0  0  0  0  0  0  0  0  0
    0.8256   -3.2855   15.9569 Cl  0  0  0  0  0  0  0  0  0  0  0  0
  1  2  2  0
  2  3  1  0
  3  4  2  0
  4  5  1  0
  5  6  2  0
  6  7  1  0
  7  8  2  0
  8  9  1  0
  6 10  1  0
 10 11  2  0
 10 12  2  0
 10 13  1  0
  2 14  1  0
 14 15  1  0
 15 16  2  0
 16 17  1  0
 17 18  2  0
 18 19  1  0
 19 20  2  0
 19 21  1  0
 21 22  2  0
 22 23  1  0
 23 24  2  0
 24 25  1  0
 25 26  2  0
 18 27  1  0
  8  3  1  0
 20 15  1  0
 26 21  1  0
M  END
$$$$
