
     RDKit          3D

 27 29  0  0  0  0  0  0  0  0999 V2000
    3.2031   -4.6383   10.0054 O   0  0  0  0  0  0  0  0  0  0  0  0
    2.1397   -4.9165   10.6510 C   0  0  0  0  0  0  0  0  0  0  0  0
    2.0724   -4.8942   12.0990 C   0  0  0  0  0  0  0  0  0  0  0  0
    1.7560   -6.0037   12.8418 C   0  0  0  0  0  0  0  0  0  0  0  0
    1.6898   -5.9805   14.2151 C   0  0  0  0  0  0  0  0  0  0  0  0
    1.9502   -4.8013   14.8685 C   0  0  0  0  0  0  0  0  0  0  0  0
    2.2754   -3.6517   14.1536 C   0  0  0  0  0  0  0  0  0  0  0  0
    2.3313   -3.7206   12.7586 C   0  0  0  0  0  0  0  0  0  0  0  0
    2.7341   -2.3016   11.8498 Cl  0  0  0  0  0  0  0  0  0  0  0  0
    1.8561   -4.7962   16.6212 S   0  0  0  0  0  6  0  0  0  0  0  0
    3.2128   -4.4421   17.1695 O   0  0  0  0  0  0  0  0  0  0  0  0
    0.8488   -3.7940   17.1024 O   0  0  0  0  0  0  0  0  0  0  0  0
    1.4012   -6.4171   17.2031 C   0  0  0  0  0  0  0  0  0  0  0  0
    0.9649   -5.2643    9.9375 N   0  0  0  0  0  0  0  0  0  0  0  0
    0.9231   -5.4460    8.5225 C   0  0  0  0  0  0  0  0  0  0  0  0
    1.9224   -4.9321    7.7048 C   0  0  0  0  0  0  0  0  0  0  0  0
    1.8508   -5.1299    6.3505 C   0  0  0  0  0  0  0  0  0  0  0  0
    0.8019   -5.8359    5.7485 C   0  0  0  0  0  0  0  0  0  0  0  0
   -0.1743   -6.3413    6.5298 C   0  0  0  0  0  0  0  0  0  0  0  0
   -0.0977   -6.1350    7.9235 C   0  0  0  0  0  0  0  0  0  0  0  0
   -1.3430   -7.0706    6.0610 C   0  0  0  0  0  0  0  0  0  0  0  0
   -2.0627   -6.7923    4.9307 C   0  0  0  0  0  0  0  0  0  0  0  0
   -3.1532   -7.5472    4.5036 C   0  0  0  0  0  0  0  0  0  0  0  0
   -3.5506   -8.6372    5.2364 C   0  0  0  0  0  0  0  0  0  0  0  0
   -2.8215   -8.9195    6.3800 C   0  0  0  0  0  0  0  0  0  0  0  0
   -1.7813   -8.1682    6.7543 N   0  0  0  0  0  0  0  0  0  0  0  0
    0.8226   -5.9666    4.0153 Cl  0  0  0  0  0  0  0  0  0  0  0  0
  1  2  2  0
  2  3  1  0
  3  4  2  0
  4  5  1  0
  5  6  2  0
  6  7  1  0
  7  8  2  0
  8  9  1  0
  6 10  1  0
 10 11  2  0
 10 12  2  0
 10 13  1  0
  2 14  1  0
 14 15  1  0
 15 16  2  0
 16 17  1  0
 17 18  2  0
 18 19  1  0
 19 20  2  0
 19 21  1  0
 21 22  2  0
 22 23  1  0
 23 24  2  0
 24 25  1  0
 25 26  2  0
 18 27  1  0
  8  3  1  0
 20 15  1  0
 26 21  1  0
M  END
$$$$
