
     RDKit          3D

 35 38  0  0  0  0  0  0  0  0999 V2000
    2.5714    3.1367    7.4191 C   0  0  0  0  0  0  0  0  0  0  0  0
    1.2727    2.4577    7.0644 C   0  0  0  0  0  0  0  0  0  0  0  0
    1.2860    2.1971    5.5737 C   0  0  0  0  0  0  0  0  0  0  0  0
    0.1176    3.3106    7.3860 C   0  0  0  0  0  0  0  0  0  0  0  0
   -0.4895    3.1316    8.6258 C   0  0  0  0  0  0  0  0  0  0  0  0
   -1.5745    3.9181    8.9504 C   0  0  0  0  0  0  0  0  0  0  0  0
   -2.0797    4.8852    8.0748 C   0  0  0  0  0  0  0  0  0  0  0  0
   -1.4679    5.0505    6.8512 C   0  0  0  0  0  0  0  0  0  0  0  0
   -0.3716    4.2603    6.5155 C   0  0  0  0  0  0  0  0  0  0  0  0
   -3.1749    5.6464    8.4585 O   0  0  0  0  0  0  0  0  0  0  0  0
    1.1642    1.2146    7.8473 C   0  0  0  0  0  0  0  0  0  0  0  0
    2.2795    0.7376    8.5005 C   0  0  0  0  0  0  0  0  0  0  0  0
    2.2432   -0.4294    9.2557 C   0  0  0  0  0  0  0  0  0  0  0  0
    1.0667   -1.1431    9.3658 C   0  0  0  0  0  0  0  0  0  0  0  0
   -0.0612   -0.6816    8.7191 C   0  0  0  0  0  0  0  0  0  0  0  0
    0.0045    0.4757    7.9791 C   0  0  0  0  0  0  0  0  0  0  0  0
    1.0083   -2.3213   10.1215 O   0  0  0  0  0  0  0  0  0  0  0  0
    2.0756   -2.7141   10.9409 C   0  0  0  0  0  0  0  0  0  0  0  0
    1.7189   -4.0088   11.5982 C   0  0  0  0  0  0  0  0  0  0  0  0
    2.2529   -5.2045   11.2211 C   0  0  0  0  0  0  0  0  0  0  0  0
    1.8659   -6.3487   11.8873 C   0  0  0  0  0  0  0  0  0  0  0  0
    0.9684   -6.3023   12.9048 C   0  0  0  0  0  0  0  0  0  0  0  0
    0.4011   -5.1001   13.3185 C   0  0  0  0  0  0  0  0  0  0  0  0
    0.7990   -3.9786   12.6448 C   0  0  0  0  0  0  0  0  0  0  0  0
   -0.5402   -5.0930   14.4631 C   0  0  0  0  0  0  0  0  0  0  0  0
   -1.4503   -6.0687   14.5730 O   0  0  0  0  0  0  0  0  0  0  0  0
   -2.4842   -6.3079   15.3975 C   0  0  0  0  0  0  0  0  0  0  0  0
   -3.3492   -7.3909   15.3584 C   0  0  0  0  0  0  0  0  0  0  0  0
   -4.3867   -7.5562   16.2508 C   0  0  0  0  0  0  0  0  0  0  0  0
   -4.6197   -6.6380   17.2422 C   0  0  0  0  0  0  0  0  0  0  0  0
   -3.7865   -5.5465   17.3191 C   0  0  0  0  0  0  0  0  0  0  0  0
   -2.7620   -5.3842   16.4374 C   0  0  0  0  0  0  0  0  0  0  0  0
   -5.7168   -6.7904   18.2028 C   0  0  0  0  0  0  0  0  0  0  0  0
   -6.5238   -7.7927   18.1671 N   0  0  0  0  0  0  0  0  0  0  0  0
   -5.8775   -5.7966   19.1912 N   0  0  0  0  0  0  0  0  0  0  0  0
  1  2  1  0
  2  3  1  0
  2  4  1  0
  4  5  2  0
  5  6  1  0
  6  7  2  0
  7  8  1  0
  8  9  2  0
  7 10  1  0
  2 11  1  0
 11 12  2  0
 12 13  1  0
 13 14  2  0
 14 15  1  0
 15 16  2  0
 14 17  1  0
 17 18  1  0
 18 19  1  0
 19 20  2  0
 20 21  1  0
 21 22  2  0
 22 23  1  0
 23 24  2  0
 23 25  1  0
 25 26  1  0
 26 27  1  0
 27 28  2  0
 28 29  1  0
 29 30  2  0
 30 31  1  0
 31 32  2  0
 30 33  1  0
 33 34  2  0
 33 35  1  0
  9  4  1  0
 16 11  1  0
 24 19  1  0
 32 27  1  0
M  END
$$$$
