
     RDKit          3D

 35 38  0  0  0  0  0  0  0  0999 V2000
    2.3317    2.6575    6.9008 C   0  0  0  0  0  0  0  0  0  0  0  0
    0.8865    2.3197    7.1665 C   0  0  0  0  0  0  0  0  0  0  0  0
    0.1912    2.2023    5.8274 C   0  0  0  0  0  0  0  0  0  0  0  0
    0.2263    3.3740    7.9523 C   0  0  0  0  0  0  0  0  0  0  0  0
    0.9606    3.9720    8.9726 C   0  0  0  0  0  0  0  0  0  0  0  0
    0.3638    4.9621    9.7240 C   0  0  0  0  0  0  0  0  0  0  0  0
   -0.9508    5.3805    9.4919 C   0  0  0  0  0  0  0  0  0  0  0  0
   -1.6648    4.7790    8.4785 C   0  0  0  0  0  0  0  0  0  0  0  0
   -1.0695    3.7783    7.7148 C   0  0  0  0  0  0  0  0  0  0  0  0
   -1.4967    6.3824   10.2821 O   0  0  0  0  0  0  0  0  0  0  0  0
    0.8319    1.0644    7.9355 C   0  0  0  0  0  0  0  0  0  0  0  0
    1.9720    0.2987    8.0453 C   0  0  0  0  0  0  0  0  0  0  0  0
    1.9867   -0.8958    8.7570 C   0  0  0  0  0  0  0  0  0  0  0  0
    0.8373   -1.3429    9.3773 C   0  0  0  0  0  0  0  0  0  0  0  0
   -0.3146   -0.5901    9.2790 C   0  0  0  0  0  0  0  0  0  0  0  0
   -0.2993    0.5871    8.5685 C   0  0  0  0  0  0  0  0  0  0  0  0
    0.8303   -2.5436   10.0992 O   0  0  0  0  0  0  0  0  0  0  0  0
    2.0087   -3.2723   10.3112 C   0  0  0  0  0  0  0  0  0  0  0  0
    1.6641   -4.5327   11.0379 C   0  0  0  0  0  0  0  0  0  0  0  0
    2.4201   -5.6639   10.9617 C   0  0  0  0  0  0  0  0  0  0  0  0
    2.0253   -6.7802   11.6695 C   0  0  0  0  0  0  0  0  0  0  0  0
    0.9041   -6.7692   12.4347 C   0  0  0  0  0  0  0  0  0  0  0  0
    0.1061   -5.6331   12.5377 C   0  0  0  0  0  0  0  0  0  0  0  0
    0.5161   -4.5382   11.8283 C   0  0  0  0  0  0  0  0  0  0  0  0
   -1.0840   -5.6546   13.4206 C   0  0  0  0  0  0  0  0  0  0  0  0
   -0.9835   -5.1903   14.6722 O   0  0  0  0  0  0  0  0  0  0  0  0
   -1.8078   -5.1463   15.7327 C   0  0  0  0  0  0  0  0  0  0  0  0
   -3.1938   -5.1834   15.7141 C   0  0  0  0  0  0  0  0  0  0  0  0
   -3.9619   -5.1350   16.8576 C   0  0  0  0  0  0  0  0  0  0  0  0
   -3.3808   -5.0454   18.0965 C   0  0  0  0  0  0  0  0  0  0  0  0
   -2.0078   -5.0053   18.1634 C   0  0  0  0  0  0  0  0  0  0  0  0
   -1.2500   -5.0534   17.0334 C   0  0  0  0  0  0  0  0  0  0  0  0
   -4.1756   -4.9914   19.3274 C   0  0  0  0  0  0  0  0  0  0  0  0
   -5.4593   -4.8978   19.3100 N   0  0  0  0  0  0  0  0  0  0  0  0
   -3.4937   -5.0451   20.5613 N   0  0  0  0  0  0  0  0  0  0  0  0
  1  2  1  0
  2  3  1  0
  2  4  1  0
  4  5  2  0
  5  6  1  0
  6  7  2  0
  7  8  1  0
  8  9  2  0
  7 10  1  0
  2 11  1  0
 11 12  2  0
 12 13  1  0
 13 14  2  0
 14 15  1  0
 15 16  2  0
 14 17  1  0
 17 18  1  0
 18 19  1  0
 19 20  2  0
 20 21  1  0
 21 22  2  0
 22 23  1  0
 23 24  2  0
 23 25  1  0
 25 26  1  0
 26 27  1  0
 27 28  2  0
 28 29  1  0
 29 30  2  0
 30 31  1  0
 31 32  2  0
 30 33  1  0
 33 34  2  0
 33 35  1  0
  9  4  1  0
 16 11  1  0
 24 19  1  0
 32 27  1  0
M  END
$$$$
