
     RDKit          3D

 35 38  0  0  0  0  0  0  0  0999 V2000
    1.4373    4.1156    9.7556 C   0  0  0  0  0  0  0  0  0  0  0  0
    1.8571    3.2154    8.6213 C   0  0  0  0  0  0  0  0  0  0  0  0
    3.2690    3.5979    8.2333 C   0  0  0  0  0  0  0  0  0  0  0  0
    0.9816    3.3854    7.4510 C   0  0  0  0  0  0  0  0  0  0  0  0
    1.5395    3.1738    6.1933 C   0  0  0  0  0  0  0  0  0  0  0  0
    0.7397    3.3278    5.0807 C   0  0  0  0  0  0  0  0  0  0  0  0
   -0.6084    3.6884    5.1790 C   0  0  0  0  0  0  0  0  0  0  0  0
   -1.1462    3.8945    6.4308 C   0  0  0  0  0  0  0  0  0  0  0  0
   -0.3454    3.7410    7.5596 C   0  0  0  0  0  0  0  0  0  0  0  0
   -1.3626    3.8281    4.0223 O   0  0  0  0  0  0  0  0  0  0  0  0
    1.7621    1.8164    9.0729 C   0  0  0  0  0  0  0  0  0  0  0  0
    1.1080    0.9012    8.2775 C   0  0  0  0  0  0  0  0  0  0  0  0
    0.9838   -0.4338    8.6465 C   0  0  0  0  0  0  0  0  0  0  0  0
    1.5243   -0.8727    9.8385 C   0  0  0  0  0  0  0  0  0  0  0  0
    2.1833    0.0286   10.6488 C   0  0  0  0  0  0  0  0  0  0  0  0
    2.2904    1.3428   10.2581 C   0  0  0  0  0  0  0  0  0  0  0  0
    1.4105   -2.2133   10.2293 O   0  0  0  0  0  0  0  0  0  0  0  0
    1.4472   -2.5830   11.5808 C   0  0  0  0  0  0  0  0  0  0  0  0
    1.1127   -4.0366   11.6853 C   0  0  0  0  0  0  0  0  0  0  0  0
    1.7727   -5.0022   10.9861 C   0  0  0  0  0  0  0  0  0  0  0  0
    1.3962   -6.3194   11.1478 C   0  0  0  0  0  0  0  0  0  0  0  0
    0.3861   -6.6657   11.9861 C   0  0  0  0  0  0  0  0  0  0  0  0
   -0.3116   -5.7081   12.7170 C   0  0  0  0  0  0  0  0  0  0  0  0
    0.0783   -4.4091   12.5418 C   0  0  0  0  0  0  0  0  0  0  0  0
   -1.3769   -6.1379   13.6534 C   0  0  0  0  0  0  0  0  0  0  0  0
   -1.4141   -5.6239   14.8890 O   0  0  0  0  0  0  0  0  0  0  0  0
   -2.2980   -5.6587   15.9006 C   0  0  0  0  0  0  0  0  0  0  0  0
   -2.2223   -4.9651   17.0988 C   0  0  0  0  0  0  0  0  0  0  0  0
   -3.1816   -5.0605   18.0840 C   0  0  0  0  0  0  0  0  0  0  0  0
   -4.2816   -5.8637   17.9244 C   0  0  0  0  0  0  0  0  0  0  0  0
   -4.3985   -6.5714   16.7509 C   0  0  0  0  0  0  0  0  0  0  0  0
   -3.4505   -6.4762   15.7785 C   0  0  0  0  0  0  0  0  0  0  0  0
   -5.3152   -5.9833   18.9574 C   0  0  0  0  0  0  0  0  0  0  0  0
   -5.2890   -5.2819   20.0364 N   0  0  0  0  0  0  0  0  0  0  0  0
   -6.3646   -6.9017   18.7440 N   0  0  0  0  0  0  0  0  0  0  0  0
  1  2  1  0
  2  3  1  0
  2  4  1  0
  4  5  2  0
  5  6  1  0
  6  7  2  0
  7  8  1  0
  8  9  2  0
  7 10  1  0
  2 11  1  0
 11 12  2  0
 12 13  1  0
 13 14  2  0
 14 15  1  0
 15 16  2  0
 14 17  1  0
 17 18  1  0
 18 19  1  0
 19 20  2  0
 20 21  1  0
 21 22  2  0
 22 23  1  0
 23 24  2  0
 23 25  1  0
 25 26  1  0
 26 27  1  0
 27 28  2  0
 28 29  1  0
 29 30  2  0
 30 31  1  0
 31 32  2  0
 30 33  1  0
 33 34  2  0
 33 35  1  0
  9  4  1  0
 16 11  1  0
 24 19  1  0
 32 27  1  0
M  END
$$$$
