
     RDKit          3D

 35 38  0  0  0  0  0  0  0  0999 V2000
    2.6182    4.5666    6.7462 C   0  0  0  0  0  0  0  0  0  0  0  0
    1.2128    4.0800    6.4988 C   0  0  0  0  0  0  0  0  0  0  0  0
    0.8959    4.3224    5.0389 C   0  0  0  0  0  0  0  0  0  0  0  0
    0.2395    4.8138    7.3230 C   0  0  0  0  0  0  0  0  0  0  0  0
    0.3274    6.2029    7.3395 C   0  0  0  0  0  0  0  0  0  0  0  0
   -0.5728    6.9134    8.1051 C   0  0  0  0  0  0  0  0  0  0  0  0
   -1.5661    6.2819    8.8612 C   0  0  0  0  0  0  0  0  0  0  0  0
   -1.6403    4.9063    8.8346 C   0  0  0  0  0  0  0  0  0  0  0  0
   -0.7351    4.1812    8.0641 C   0  0  0  0  0  0  0  0  0  0  0  0
   -2.4436    7.0516    9.6122 O   0  0  0  0  0  0  0  0  0  0  0  0
    1.1409    2.6526    6.8559 C   0  0  0  0  0  0  0  0  0  0  0  0
    1.7097    2.2307    8.0376 C   0  0  0  0  0  0  0  0  0  0  0  0
    1.6759    0.8977    8.4323 C   0  0  0  0  0  0  0  0  0  0  0  0
    1.0600   -0.0430    7.6314 C   0  0  0  0  0  0  0  0  0  0  0  0
    0.4843    0.3599    6.4441 C   0  0  0  0  0  0  0  0  0  0  0  0
    0.5333    1.6850    6.0796 C   0  0  0  0  0  0  0  0  0  0  0  0
    1.0147   -1.3910    8.0101 O   0  0  0  0  0  0  0  0  0  0  0  0
    0.4183   -1.7891    9.2145 C   0  0  0  0  0  0  0  0  0  0  0  0
    0.0130   -3.2231    9.0931 C   0  0  0  0  0  0  0  0  0  0  0  0
   -0.6419   -3.7199    8.0062 C   0  0  0  0  0  0  0  0  0  0  0  0
   -0.9743   -5.0585    7.9807 C   0  0  0  0  0  0  0  0  0  0  0  0
   -0.6617   -5.8819    9.0137 C   0  0  0  0  0  0  0  0  0  0  0  0
    0.0065   -5.4116   10.1409 C   0  0  0  0  0  0  0  0  0  0  0  0
    0.3266   -4.0821   10.1449 C   0  0  0  0  0  0  0  0  0  0  0  0
    0.3662   -6.3573   11.2238 C   0  0  0  0  0  0  0  0  0  0  0  0
    0.5501   -5.8955   12.4668 O   0  0  0  0  0  0  0  0  0  0  0  0
    0.6265   -6.4614   13.6833 C   0  0  0  0  0  0  0  0  0  0  0  0
    0.7607   -5.8094   14.8997 C   0  0  0  0  0  0  0  0  0  0  0  0
    0.8292   -6.4747   16.1050 C   0  0  0  0  0  0  0  0  0  0  0  0
    0.7670   -7.8434   16.1617 C   0  0  0  0  0  0  0  0  0  0  0  0
    0.6342   -8.5325   14.9789 C   0  0  0  0  0  0  0  0  0  0  0  0
    0.5665   -7.8744   13.7891 C   0  0  0  0  0  0  0  0  0  0  0  0
    0.8387   -8.5745   17.4306 C   0  0  0  0  0  0  0  0  0  0  0  0
    1.0734   -7.9827   18.5494 N   0  0  0  0  0  0  0  0  0  0  0  0
    0.6411   -9.9711   17.4049 N   0  0  0  0  0  0  0  0  0  0  0  0
  1  2  1  0
  2  3  1  0
  2  4  1  0
  4  5  2  0
  5  6  1  0
  6  7  2  0
  7  8  1  0
  8  9  2  0
  7 10  1  0
  2 11  1  0
 11 12  2  0
 12 13  1  0
 13 14  2  0
 14 15  1  0
 15 16  2  0
 14 17  1  0
 17 18  1  0
 18 19  1  0
 19 20  2  0
 20 21  1  0
 21 22  2  0
 22 23  1  0
 23 24  2  0
 23 25  1  0
 25 26  1  0
 26 27  1  0
 27 28  2  0
 28 29  1  0
 29 30  2  0
 30 31  1  0
 31 32  2  0
 30 33  1  0
 33 34  2  0
 33 35  1  0
  9  4  1  0
 16 11  1  0
 24 19  1  0
 32 27  1  0
M  END
$$$$
