
     RDKit          3D

 35 38  0  0  0  0  0  0  0  0999 V2000
   -2.9459   -6.4245   12.1082 C   0  0  0  0  0  0  0  0  0  0  0  0
   -1.8230   -6.6873   13.0795 C   0  0  0  0  0  0  0  0  0  0  0  0
   -1.2326   -8.0388   12.7403 C   0  0  0  0  0  0  0  0  0  0  0  0
   -2.3119   -6.7185   14.4670 C   0  0  0  0  0  0  0  0  0  0  0  0
   -1.7557   -5.8131   15.3662 C   0  0  0  0  0  0  0  0  0  0  0  0
   -2.1964   -5.8231   16.6726 C   0  0  0  0  0  0  0  0  0  0  0  0
   -3.1808   -6.7120   17.1178 C   0  0  0  0  0  0  0  0  0  0  0  0
   -3.7218   -7.6022   16.2158 C   0  0  0  0  0  0  0  0  0  0  0  0
   -3.2823   -7.5986   14.8946 C   0  0  0  0  0  0  0  0  0  0  0  0
   -3.5834   -6.6739   18.4454 O   0  0  0  0  0  0  0  0  0  0  0  0
   -0.8353   -5.6009   12.9597 C   0  0  0  0  0  0  0  0  0  0  0  0
    0.4963   -5.9226   12.8133 C   0  0  0  0  0  0  0  0  0  0  0  0
    1.4777   -4.9445   12.6949 C   0  0  0  0  0  0  0  0  0  0  0  0
    1.1274   -3.6095   12.7224 C   0  0  0  0  0  0  0  0  0  0  0  0
   -0.2011   -3.2672   12.8681 C   0  0  0  0  0  0  0  0  0  0  0  0
   -1.1497   -4.2560   12.9830 C   0  0  0  0  0  0  0  0  0  0  0  0
    2.1002   -2.6082   12.6049 O   0  0  0  0  0  0  0  0  0  0  0  0
    1.7495   -1.2512   12.5871 C   0  0  0  0  0  0  0  0  0  0  0  0
    2.3311   -0.6260   11.3597 C   0  0  0  0  0  0  0  0  0  0  0  0
    3.6665   -0.6265   11.0880 C   0  0  0  0  0  0  0  0  0  0  0  0
    4.1125   -0.0267    9.9287 C   0  0  0  0  0  0  0  0  0  0  0  0
    3.2484    0.5596    9.0611 C   0  0  0  0  0  0  0  0  0  0  0  0
    1.8778    0.5805    9.3040 C   0  0  0  0  0  0  0  0  0  0  0  0
    1.4576   -0.0200   10.4585 C   0  0  0  0  0  0  0  0  0  0  0  0
    0.9690    1.1929    8.3063 C   0  0  0  0  0  0  0  0  0  0  0  0
    0.5416    2.4484    8.4883 O   0  0  0  0  0  0  0  0  0  0  0  0
   -0.1553    3.3262    7.7468 C   0  0  0  0  0  0  0  0  0  0  0  0
   -0.4611    3.2215    6.3985 C   0  0  0  0  0  0  0  0  0  0  0  0
   -1.1869    4.1746    5.7167 C   0  0  0  0  0  0  0  0  0  0  0  0
   -1.6519    5.2975    6.3518 C   0  0  0  0  0  0  0  0  0  0  0  0
   -1.3719    5.4439    7.6903 C   0  0  0  0  0  0  0  0  0  0  0  0
   -0.6551    4.5019    8.3628 C   0  0  0  0  0  0  0  0  0  0  0  0
   -2.4250    6.3261    5.6489 C   0  0  0  0  0  0  0  0  0  0  0  0
   -2.8747    7.3731    6.2476 N   0  0  0  0  0  0  0  0  0  0  0  0
   -2.6739    6.1452    4.2721 N   0  0  0  0  0  0  0  0  0  0  0  0
  1  2  1  0
  2  3  1  0
  2  4  1  0
  4  5  2  0
  5  6  1  0
  6  7  2  0
  7  8  1  0
  8  9  2  0
  7 10  1  0
  2 11  1  0
 11 12  2  0
 12 13  1  0
 13 14  2  0
 14 15  1  0
 15 16  2  0
 14 17  1  0
 17 18  1  0
 18 19  1  0
 19 20  2  0
 20 21  1  0
 21 22  2  0
 22 23  1  0
 23 24  2  0
 23 25  1  0
 25 26  1  0
 26 27  1  0
 27 28  2  0
 28 29  1  0
 29 30  2  0
 30 31  1  0
 31 32  2  0
 30 33  1  0
 33 34  2  0
 33 35  1  0
  9  4  1  0
 16 11  1  0
 24 19  1  0
 32 27  1  0
M  END
$$$$
