
     RDKit          3D

 35 38  0  0  0  0  0  0  0  0999 V2000
    2.0105   -7.1843   15.8812 C   0  0  0  0  0  0  0  0  0  0  0  0
    0.6669   -6.6398   15.4671 C   0  0  0  0  0  0  0  0  0  0  0  0
    0.0996   -5.8786   16.6456 C   0  0  0  0  0  0  0  0  0  0  0  0
   -0.2629   -7.7232   15.1109 C   0  0  0  0  0  0  0  0  0  0  0  0
   -1.5628   -7.3676   14.7624 C   0  0  0  0  0  0  0  0  0  0  0  0
   -2.4534   -8.3648   14.4254 C   0  0  0  0  0  0  0  0  0  0  0  0
   -2.0902   -9.7159   14.4237 C   0  0  0  0  0  0  0  0  0  0  0  0
   -0.7998  -10.0521   14.7710 C   0  0  0  0  0  0  0  0  0  0  0  0
    0.1058   -9.0511   15.1126 C   0  0  0  0  0  0  0  0  0  0  0  0
   -3.0316  -10.6742   14.0750 O   0  0  0  0  0  0  0  0  0  0  0  0
    0.8531   -5.7805   14.2851 C   0  0  0  0  0  0  0  0  0  0  0  0
    1.4733   -6.3026   13.1712 C   0  0  0  0  0  0  0  0  0  0  0  0
    1.6791   -5.5442   12.0240 C   0  0  0  0  0  0  0  0  0  0  0  0
    1.2571   -4.2305   11.9811 C   0  0  0  0  0  0  0  0  0  0  0  0
    0.6338   -3.6895   13.0865 C   0  0  0  0  0  0  0  0  0  0  0  0
    0.4439   -4.4634   14.2073 C   0  0  0  0  0  0  0  0  0  0  0  0
    1.4547   -3.4488   10.8354 O   0  0  0  0  0  0  0  0  0  0  0  0
    1.0710   -2.1011   10.7988 C   0  0  0  0  0  0  0  0  0  0  0  0
    1.0495   -1.6515    9.3730 C   0  0  0  0  0  0  0  0  0  0  0  0
    0.8618   -2.5059    8.3280 C   0  0  0  0  0  0  0  0  0  0  0  0
    0.8548   -2.0002    7.0447 C   0  0  0  0  0  0  0  0  0  0  0  0
    1.0307   -0.6749    6.8085 C   0  0  0  0  0  0  0  0  0  0  0  0
    1.2253    0.2287    7.8495 C   0  0  0  0  0  0  0  0  0  0  0  0
    1.2283   -0.2939    9.1132 C   0  0  0  0  0  0  0  0  0  0  0  0
    1.3682    1.6722    7.5458 C   0  0  0  0  0  0  0  0  0  0  0  0
    0.3970    2.5201    7.9066 O   0  0  0  0  0  0  0  0  0  0  0  0
    0.1020    3.7983    7.6149 C   0  0  0  0  0  0  0  0  0  0  0  0
    0.7966    4.6405    6.7600 C   0  0  0  0  0  0  0  0  0  0  0  0
    0.4180    5.9436    6.5179 C   0  0  0  0  0  0  0  0  0  0  0  0
   -0.6876    6.4829    7.1238 C   0  0  0  0  0  0  0  0  0  0  0  0
   -1.4076    5.6838    7.9808 C   0  0  0  0  0  0  0  0  0  0  0  0
   -1.0329    4.3969    8.2191 C   0  0  0  0  0  0  0  0  0  0  0  0
   -1.1104    7.8662    6.8837 C   0  0  0  0  0  0  0  0  0  0  0  0
   -0.4842    8.6420    6.0696 N   0  0  0  0  0  0  0  0  0  0  0  0
   -2.2426    8.3446    7.5764 N   0  0  0  0  0  0  0  0  0  0  0  0
  1  2  1  0
  2  3  1  0
  2  4  1  0
  4  5  2  0
  5  6  1  0
  6  7  2  0
  7  8  1  0
  8  9  2  0
  7 10  1  0
  2 11  1  0
 11 12  2  0
 12 13  1  0
 13 14  2  0
 14 15  1  0
 15 16  2  0
 14 17  1  0
 17 18  1  0
 18 19  1  0
 19 20  2  0
 20 21  1  0
 21 22  2  0
 22 23  1  0
 23 24  2  0
 23 25  1  0
 25 26  1  0
 26 27  1  0
 27 28  2  0
 28 29  1  0
 29 30  2  0
 30 31  1  0
 31 32  2  0
 30 33  1  0
 33 34  2  0
 33 35  1  0
  9  4  1  0
 16 11  1  0
 24 19  1  0
 32 27  1  0
M  END
$$$$
