
     RDKit          3D

 35 38  0  0  0  0  0  0  0  0999 V2000
    3.1152    3.7888    8.5998 C   0  0  0  0  0  0  0  0  0  0  0  0
    2.0867    2.9731    7.8582 C   0  0  0  0  0  0  0  0  0  0  0  0
    2.6111    2.7411    6.4576 C   0  0  0  0  0  0  0  0  0  0  0  0
    0.8013    3.6838    7.7711 C   0  0  0  0  0  0  0  0  0  0  0  0
    0.2774    3.9140    6.5021 C   0  0  0  0  0  0  0  0  0  0  0  0
   -0.9256    4.5790    6.3940 C   0  0  0  0  0  0  0  0  0  0  0  0
   -1.6307    5.0264    7.5164 C   0  0  0  0  0  0  0  0  0  0  0  0
   -1.0993    4.7911    8.7657 C   0  0  0  0  0  0  0  0  0  0  0  0
    0.1152    4.1202    8.8838 C   0  0  0  0  0  0  0  0  0  0  0  0
   -2.8373    5.6901    7.3433 O   0  0  0  0  0  0  0  0  0  0  0  0
    1.8716    1.7125    8.5894 C   0  0  0  0  0  0  0  0  0  0  0  0
    1.7012    0.5470    7.8748 C   0  0  0  0  0  0  0  0  0  0  0  0
    1.4944   -0.6753    8.5049 C   0  0  0  0  0  0  0  0  0  0  0  0
    1.4558   -0.7426    9.8832 C   0  0  0  0  0  0  0  0  0  0  0  0
    1.6244    0.4137   10.6165 C   0  0  0  0  0  0  0  0  0  0  0  0
    1.8271    1.6083    9.9662 C   0  0  0  0  0  0  0  0  0  0  0  0
    1.2485   -1.9636   10.5380 O   0  0  0  0  0  0  0  0  0  0  0  0
    1.6924   -3.1718    9.9829 C   0  0  0  0  0  0  0  0  0  0  0  0
    1.0375   -4.2998   10.7137 C   0  0  0  0  0  0  0  0  0  0  0  0
    0.8709   -5.5386   10.1709 C   0  0  0  0  0  0  0  0  0  0  0  0
    0.2568   -6.5197   10.9214 C   0  0  0  0  0  0  0  0  0  0  0  0
   -0.1808   -6.2720   12.1824 C   0  0  0  0  0  0  0  0  0  0  0  0
   -0.0289   -5.0195   12.7709 C   0  0  0  0  0  0  0  0  0  0  0  0
    0.5827   -4.0623   12.0096 C   0  0  0  0  0  0  0  0  0  0  0  0
   -0.4821   -4.8089   14.1661 C   0  0  0  0  0  0  0  0  0  0  0  0
   -1.3024   -5.7018   14.7337 O   0  0  0  0  0  0  0  0  0  0  0  0
   -1.9988   -5.7486   15.8821 C   0  0  0  0  0  0  0  0  0  0  0  0
   -2.7318   -6.8197   16.3701 C   0  0  0  0  0  0  0  0  0  0  0  0
   -3.4168   -6.7787   17.5655 C   0  0  0  0  0  0  0  0  0  0  0  0
   -3.4073   -5.6524   18.3477 C   0  0  0  0  0  0  0  0  0  0  0  0
   -2.6932   -4.5644   17.9028 C   0  0  0  0  0  0  0  0  0  0  0  0
   -2.0169   -4.6060   16.7221 C   0  0  0  0  0  0  0  0  0  0  0  0
   -4.1284   -5.5832   19.6224 C   0  0  0  0  0  0  0  0  0  0  0  0
   -4.8881   -6.5382   20.0319 N   0  0  0  0  0  0  0  0  0  0  0  0
   -3.9720   -4.4246   20.4121 N   0  0  0  0  0  0  0  0  0  0  0  0
  1  2  1  0
  2  3  1  0
  2  4  1  0
  4  5  2  0
  5  6  1  0
  6  7  2  0
  7  8  1  0
  8  9  2  0
  7 10  1  0
  2 11  1  0
 11 12  2  0
 12 13  1  0
 13 14  2  0
 14 15  1  0
 15 16  2  0
 14 17  1  0
 17 18  1  0
 18 19  1  0
 19 20  2  0
 20 21  1  0
 21 22  2  0
 22 23  1  0
 23 24  2  0
 23 25  1  0
 25 26  1  0
 26 27  1  0
 27 28  2  0
 28 29  1  0
 29 30  2  0
 30 31  1  0
 31 32  2  0
 30 33  1  0
 33 34  2  0
 33 35  1  0
  9  4  1  0
 16 11  1  0
 24 19  1  0
 32 27  1  0
M  END
$$$$
