
     RDKit          3D

 35 38  0  0  0  0  0  0  0  0999 V2000
    0.2890    0.6849    6.3014 C   0  0  0  0  0  0  0  0  0  0  0  0
    0.2747    1.1887    7.7224 C   0  0  0  0  0  0  0  0  0  0  0  0
   -1.0556    1.8732    7.9510 C   0  0  0  0  0  0  0  0  0  0  0  0
    1.3541    2.1610    7.9564 C   0  0  0  0  0  0  0  0  0  0  0  0
    0.9963    3.4989    8.0970 C   0  0  0  0  0  0  0  0  0  0  0  0
    1.9898    4.4295    8.3161 C   0  0  0  0  0  0  0  0  0  0  0  0
    3.3392    4.0699    8.4007 C   0  0  0  0  0  0  0  0  0  0  0  0
    3.6775    2.7417    8.2594 C   0  0  0  0  0  0  0  0  0  0  0  0
    2.6803    1.7954    8.0379 C   0  0  0  0  0  0  0  0  0  0  0  0
    4.2937    5.0526    8.6228 O   0  0  0  0  0  0  0  0  0  0  0  0
    0.4763    0.0444    8.6279 C   0  0  0  0  0  0  0  0  0  0  0  0
    0.1881   -1.2243    8.1746 C   0  0  0  0  0  0  0  0  0  0  0  0
    0.3568   -2.3459    8.9792 C   0  0  0  0  0  0  0  0  0  0  0  0
    0.8251   -2.2041   10.2700 C   0  0  0  0  0  0  0  0  0  0  0  0
    1.1195   -0.9418   10.7423 C   0  0  0  0  0  0  0  0  0  0  0  0
    0.9427    0.1491    9.9239 C   0  0  0  0  0  0  0  0  0  0  0  0
    1.0022   -3.3207   11.0974 O   0  0  0  0  0  0  0  0  0  0  0  0
    1.8897   -3.2895   12.1820 C   0  0  0  0  0  0  0  0  0  0  0  0
    1.4449   -4.3008   13.1895 C   0  0  0  0  0  0  0  0  0  0  0  0
    2.2813   -4.8366   14.1224 C   0  0  0  0  0  0  0  0  0  0  0  0
    1.7816   -5.7627   15.0143 C   0  0  0  0  0  0  0  0  0  0  0  0
    0.4797   -6.1456   14.9771 C   0  0  0  0  0  0  0  0  0  0  0  0
   -0.4051   -5.6210   14.0389 C   0  0  0  0  0  0  0  0  0  0  0  0
    0.1112   -4.7046   13.1651 C   0  0  0  0  0  0  0  0  0  0  0  0
   -1.8276   -6.0358   14.0655 C   0  0  0  0  0  0  0  0  0  0  0  0
   -2.5634   -5.7946   15.1577 O   0  0  0  0  0  0  0  0  0  0  0  0
   -3.7768   -6.1838   15.5844 C   0  0  0  0  0  0  0  0  0  0  0  0
   -4.6313   -7.0816   14.9628 C   0  0  0  0  0  0  0  0  0  0  0  0
   -5.8633   -7.4250   15.4769 C   0  0  0  0  0  0  0  0  0  0  0  0
   -6.3144   -6.8837   16.6534 C   0  0  0  0  0  0  0  0  0  0  0  0
   -5.4998   -5.9875   17.3051 C   0  0  0  0  0  0  0  0  0  0  0  0
   -4.2831   -5.6492   16.7966 C   0  0  0  0  0  0  0  0  0  0  0  0
   -7.6209   -7.2318   17.2205 C   0  0  0  0  0  0  0  0  0  0  0  0
   -8.4153   -8.0670   16.6476 N   0  0  0  0  0  0  0  0  0  0  0  0
   -8.0024   -6.6216   18.4339 N   0  0  0  0  0  0  0  0  0  0  0  0
  1  2  1  0
  2  3  1  0
  2  4  1  0
  4  5  2  0
  5  6  1  0
  6  7  2  0
  7  8  1  0
  8  9  2  0
  7 10  1  0
  2 11  1  0
 11 12  2  0
 12 13  1  0
 13 14  2  0
 14 15  1  0
 15 16  2  0
 14 17  1  0
 17 18  1  0
 18 19  1  0
 19 20  2  0
 20 21  1  0
 21 22  2  0
 22 23  1  0
 23 24  2  0
 23 25  1  0
 25 26  1  0
 26 27  1  0
 27 28  2  0
 28 29  1  0
 29 30  2  0
 30 31  1  0
 31 32  2  0
 30 33  1  0
 33 34  2  0
 33 35  1  0
  9  4  1  0
 16 11  1  0
 24 19  1  0
 32 27  1  0
M  END
$$$$
