
     RDKit          3D

 35 38  0  0  0  0  0  0  0  0999 V2000
    0.3261    2.8940    6.2695 C   0  0  0  0  0  0  0  0  0  0  0  0
    0.2074    2.6897    7.7587 C   0  0  0  0  0  0  0  0  0  0  0  0
   -1.1136    3.2838    8.1973 C   0  0  0  0  0  0  0  0  0  0  0  0
    1.2951    3.3687    8.4804 C   0  0  0  0  0  0  0  0  0  0  0  0
    2.4872    3.5834    7.7944 C   0  0  0  0  0  0  0  0  0  0  0  0
    3.5221    4.2169    8.4492 C   0  0  0  0  0  0  0  0  0  0  0  0
    3.4091    4.6476    9.7754 C   0  0  0  0  0  0  0  0  0  0  0  0
    2.2229    4.4279   10.4412 C   0  0  0  0  0  0  0  0  0  0  0  0
    1.1728    3.7888    9.7871 C   0  0  0  0  0  0  0  0  0  0  0  0
    4.4862    5.2798   10.3808 O   0  0  0  0  0  0  0  0  0  0  0  0
    0.2919    1.2466    8.0424 C   0  0  0  0  0  0  0  0  0  0  0  0
   -0.8287    0.5899    8.5018 C   0  0  0  0  0  0  0  0  0  0  0  0
   -0.8148   -0.7709    8.7879 C   0  0  0  0  0  0  0  0  0  0  0  0
    0.3441   -1.5003    8.6130 C   0  0  0  0  0  0  0  0  0  0  0  0
    1.4768   -0.8607    8.1536 C   0  0  0  0  0  0  0  0  0  0  0  0
    1.4334    0.4861    7.8790 C   0  0  0  0  0  0  0  0  0  0  0  0
    0.3799   -2.8721    8.8954 O   0  0  0  0  0  0  0  0  0  0  0  0
    1.5644   -3.5004    9.3039 C   0  0  0  0  0  0  0  0  0  0  0  0
    1.6278   -3.4702   10.7975 C   0  0  0  0  0  0  0  0  0  0  0  0
    2.4026   -2.5885   11.4898 C   0  0  0  0  0  0  0  0  0  0  0  0
    2.3961   -2.6328   12.8685 C   0  0  0  0  0  0  0  0  0  0  0  0
    1.6356   -3.5343   13.5409 C   0  0  0  0  0  0  0  0  0  0  0  0
    0.8314   -4.4508   12.8690 C   0  0  0  0  0  0  0  0  0  0  0  0
    0.8529   -4.3889   11.5031 C   0  0  0  0  0  0  0  0  0  0  0  0
   -0.0156   -5.3861   13.6463 C   0  0  0  0  0  0  0  0  0  0  0  0
   -1.0925   -4.9190   14.2900 O   0  0  0  0  0  0  0  0  0  0  0  0
   -2.0212   -5.4619   15.0953 C   0  0  0  0  0  0  0  0  0  0  0  0
   -3.0516   -4.8000   15.7455 C   0  0  0  0  0  0  0  0  0  0  0  0
   -3.9642   -5.4419   16.5549 C   0  0  0  0  0  0  0  0  0  0  0  0
   -3.8963   -6.7958   16.7618 C   0  0  0  0  0  0  0  0  0  0  0  0
   -2.8895   -7.4940   16.1369 C   0  0  0  0  0  0  0  0  0  0  0  0
   -1.9889   -6.8590   15.3376 C   0  0  0  0  0  0  0  0  0  0  0  0
   -4.8539   -7.5018   17.6187 C   0  0  0  0  0  0  0  0  0  0  0  0
   -5.7564   -6.8799   18.2939 N   0  0  0  0  0  0  0  0  0  0  0  0
   -4.7682   -8.9080   17.6928 N   0  0  0  0  0  0  0  0  0  0  0  0
  1  2  1  0
  2  3  1  0
  2  4  1  0
  4  5  2  0
  5  6  1  0
  6  7  2  0
  7  8  1  0
  8  9  2  0
  7 10  1  0
  2 11  1  0
 11 12  2  0
 12 13  1  0
 13 14  2  0
 14 15  1  0
 15 16  2  0
 14 17  1  0
 17 18  1  0
 18 19  1  0
 19 20  2  0
 20 21  1  0
 21 22  2  0
 22 23  1  0
 23 24  2  0
 23 25  1  0
 25 26  1  0
 26 27  1  0
 27 28  2  0
 28 29  1  0
 29 30  2  0
 30 31  1  0
 31 32  2  0
 30 33  1  0
 33 34  2  0
 33 35  1  0
  9  4  1  0
 16 11  1  0
 24 19  1  0
 32 27  1  0
M  END
$$$$
