
     RDKit          3D

 35 38  0  0  0  0  0  0  0  0999 V2000
    2.3540    2.4353    6.7802 C   0  0  0  0  0  0  0  0  0  0  0  0
    0.9483    2.0429    7.1590 C   0  0  0  0  0  0  0  0  0  0  0  0
    0.1382    1.9590    5.8835 C   0  0  0  0  0  0  0  0  0  0  0  0
    0.3339    3.0437    8.0456 C   0  0  0  0  0  0  0  0  0  0  0  0
   -0.9704    3.4397    7.7633 C   0  0  0  0  0  0  0  0  0  0  0  0
   -1.5681    4.3771    8.5789 C   0  0  0  0  0  0  0  0  0  0  0  0
   -0.9051    4.9384    9.6756 C   0  0  0  0  0  0  0  0  0  0  0  0
    0.3857    4.5364    9.9420 C   0  0  0  0  0  0  0  0  0  0  0  0
    0.9965    3.5901    9.1233 C   0  0  0  0  0  0  0  0  0  0  0  0
   -1.5597    5.8779   10.4598 O   0  0  0  0  0  0  0  0  0  0  0  0
    0.9972    0.7563    7.8748 C   0  0  0  0  0  0  0  0  0  0  0  0
   -0.1305   -0.0346    7.9039 C   0  0  0  0  0  0  0  0  0  0  0  0
   -0.1497   -1.2595    8.5619 C   0  0  0  0  0  0  0  0  0  0  0  0
    0.9826   -1.7122    9.2090 C   0  0  0  0  0  0  0  0  0  0  0  0
    2.1220   -0.9346    9.1910 C   0  0  0  0  0  0  0  0  0  0  0  0
    2.1115    0.2725    8.5324 C   0  0  0  0  0  0  0  0  0  0  0  0
    0.9848   -2.9432    9.8780 O   0  0  0  0  0  0  0  0  0  0  0  0
    2.0047   -3.2803   10.7785 C   0  0  0  0  0  0  0  0  0  0  0  0
    1.5368   -4.4242   11.6201 C   0  0  0  0  0  0  0  0  0  0  0  0
    2.3549   -5.4417   12.0105 C   0  0  0  0  0  0  0  0  0  0  0  0
    1.8357   -6.4550   12.7893 C   0  0  0  0  0  0  0  0  0  0  0  0
    0.5325   -6.4542   13.1696 C   0  0  0  0  0  0  0  0  0  0  0  0
   -0.3340   -5.4326   12.7905 C   0  0  0  0  0  0  0  0  0  0  0  0
    0.2016   -4.4385   12.0193 C   0  0  0  0  0  0  0  0  0  0  0  0
   -1.7372   -5.4514   13.2670 C   0  0  0  0  0  0  0  0  0  0  0  0
   -1.9934   -5.2635   14.5676 O   0  0  0  0  0  0  0  0  0  0  0  0
   -3.0305   -5.5407   15.3760 C   0  0  0  0  0  0  0  0  0  0  0  0
   -3.0201   -6.3583   16.4958 C   0  0  0  0  0  0  0  0  0  0  0  0
   -4.1371   -6.5846   17.2710 C   0  0  0  0  0  0  0  0  0  0  0  0
   -5.3396   -6.0001   16.9663 C   0  0  0  0  0  0  0  0  0  0  0  0
   -5.3972   -5.1809   15.8631 C   0  0  0  0  0  0  0  0  0  0  0  0
   -4.2933   -4.9579   15.0982 C   0  0  0  0  0  0  0  0  0  0  0  0
   -6.5422   -6.2257   17.7742 C   0  0  0  0  0  0  0  0  0  0  0  0
   -6.5248   -6.9443   18.8420 N   0  0  0  0  0  0  0  0  0  0  0  0
   -7.7481   -5.6275   17.3519 N   0  0  0  0  0  0  0  0  0  0  0  0
  1  2  1  0
  2  3  1  0
  2  4  1  0
  4  5  2  0
  5  6  1  0
  6  7  2  0
  7  8  1  0
  8  9  2  0
  7 10  1  0
  2 11  1  0
 11 12  2  0
 12 13  1  0
 13 14  2  0
 14 15  1  0
 15 16  2  0
 14 17  1  0
 17 18  1  0
 18 19  1  0
 19 20  2  0
 20 21  1  0
 21 22  2  0
 22 23  1  0
 23 24  2  0
 23 25  1  0
 25 26  1  0
 26 27  1  0
 27 28  2  0
 28 29  1  0
 29 30  2  0
 30 31  1  0
 31 32  2  0
 30 33  1  0
 33 34  2  0
 33 35  1  0
  9  4  1  0
 16 11  1  0
 24 19  1  0
 32 27  1  0
M  END
$$$$
