
     RDKit          3D

 35 38  0  0  0  0  0  0  0  0999 V2000
    2.8584    3.0727    7.6404 C   0  0  0  0  0  0  0  0  0  0  0  0
    1.5552    2.3281    7.4967 C   0  0  0  0  0  0  0  0  0  0  0  0
    1.4264    1.9083    6.0484 C   0  0  0  0  0  0  0  0  0  0  0  0
    0.4093    3.1826    7.8460 C   0  0  0  0  0  0  0  0  0  0  0  0
    0.6810    4.4188    8.4254 C   0  0  0  0  0  0  0  0  0  0  0  0
   -0.3760    5.2375    8.7627 C   0  0  0  0  0  0  0  0  0  0  0  0
   -1.7057    4.8637    8.5406 C   0  0  0  0  0  0  0  0  0  0  0  0
   -1.9584    3.6369    7.9664 C   0  0  0  0  0  0  0  0  0  0  0  0
   -0.8968    2.8040    7.6227 C   0  0  0  0  0  0  0  0  0  0  0  0
   -2.7269    5.7313    8.9018 O   0  0  0  0  0  0  0  0  0  0  0  0
    1.5705    1.1747    8.4129 C   0  0  0  0  0  0  0  0  0  0  0  0
    1.8361    1.3862    9.7481 C   0  0  0  0  0  0  0  0  0  0  0  0
    1.8650    0.3403   10.6641 C   0  0  0  0  0  0  0  0  0  0  0  0
    1.6233   -0.9519   10.2429 C   0  0  0  0  0  0  0  0  0  0  0  0
    1.3553   -1.1841    8.9097 C   0  0  0  0  0  0  0  0  0  0  0  0
    1.3334   -0.1302    8.0266 C   0  0  0  0  0  0  0  0  0  0  0  0
    1.6478   -2.0200   11.1491 O   0  0  0  0  0  0  0  0  0  0  0  0
    1.9520   -3.3228   10.7306 C   0  0  0  0  0  0  0  0  0  0  0  0
    0.8305   -4.2257   11.1337 C   0  0  0  0  0  0  0  0  0  0  0  0
    0.1990   -5.0601   10.2607 C   0  0  0  0  0  0  0  0  0  0  0  0
   -0.8252   -5.8599   10.7234 C   0  0  0  0  0  0  0  0  0  0  0  0
   -1.2107   -5.8289   12.0247 C   0  0  0  0  0  0  0  0  0  0  0  0
   -0.5900   -4.9899   12.9462 C   0  0  0  0  0  0  0  0  0  0  0  0
    0.4226   -4.2062   12.4663 C   0  0  0  0  0  0  0  0  0  0  0  0
   -1.0152   -5.0231   14.3655 C   0  0  0  0  0  0  0  0  0  0  0  0
   -1.9357   -5.9132   14.7563 O   0  0  0  0  0  0  0  0  0  0  0  0
   -2.7756   -6.0070   15.8012 C   0  0  0  0  0  0  0  0  0  0  0  0
   -4.0337   -6.5897   15.8105 C   0  0  0  0  0  0  0  0  0  0  0  0
   -4.8287   -6.6425   16.9353 C   0  0  0  0  0  0  0  0  0  0  0  0
   -4.4057   -6.1095   18.1259 C   0  0  0  0  0  0  0  0  0  0  0  0
   -3.1635   -5.5204   18.1636 C   0  0  0  0  0  0  0  0  0  0  0  0
   -2.3790   -5.4690   17.0521 C   0  0  0  0  0  0  0  0  0  0  0  0
   -5.2327   -6.1519   19.3359 C   0  0  0  0  0  0  0  0  0  0  0  0
   -4.8434   -5.6372   20.4496 N   0  0  0  0  0  0  0  0  0  0  0  0
   -6.4929   -6.7812   19.2576 N   0  0  0  0  0  0  0  0  0  0  0  0
  1  2  1  0
  2  3  1  0
  2  4  1  0
  4  5  2  0
  5  6  1  0
  6  7  2  0
  7  8  1  0
  8  9  2  0
  7 10  1  0
  2 11  1  0
 11 12  2  0
 12 13  1  0
 13 14  2  0
 14 15  1  0
 15 16  2  0
 14 17  1  0
 17 18  1  0
 18 19  1  0
 19 20  2  0
 20 21  1  0
 21 22  2  0
 22 23  1  0
 23 24  2  0
 23 25  1  0
 25 26  1  0
 26 27  1  0
 27 28  2  0
 28 29  1  0
 29 30  2  0
 30 31  1  0
 31 32  2  0
 30 33  1  0
 33 34  2  0
 33 35  1  0
  9  4  1  0
 16 11  1  0
 24 19  1  0
 32 27  1  0
M  END
$$$$
