
     RDKit          3D

 35 38  0  0  0  0  0  0  0  0999 V2000
    3.1791    3.1489    7.7411 C   0  0  0  0  0  0  0  0  0  0  0  0
    1.9103    2.4587    7.3083 C   0  0  0  0  0  0  0  0  0  0  0  0
    1.9981    2.2367    5.8139 C   0  0  0  0  0  0  0  0  0  0  0  0
    0.7270    3.2845    7.5959 C   0  0  0  0  0  0  0  0  0  0  0  0
    0.8615    4.6651    7.4793 C   0  0  0  0  0  0  0  0  0  0  0  0
   -0.2328    5.4609    7.7444 C   0  0  0  0  0  0  0  0  0  0  0  0
   -1.4673    4.9238    8.1250 C   0  0  0  0  0  0  0  0  0  0  0  0
   -1.5848    3.5554    8.2361 C   0  0  0  0  0  0  0  0  0  0  0  0
   -0.4844    2.7445    7.9701 C   0  0  0  0  0  0  0  0  0  0  0  0
   -2.5325    5.7765    8.3786 O   0  0  0  0  0  0  0  0  0  0  0  0
    1.7864    1.1943    8.0540 C   0  0  0  0  0  0  0  0  0  0  0  0
    1.5946    1.2395    9.4175 C   0  0  0  0  0  0  0  0  0  0  0  0
    1.4698    0.0825   10.1787 C   0  0  0  0  0  0  0  0  0  0  0  0
    1.5373   -1.1543    9.5693 C   0  0  0  0  0  0  0  0  0  0  0  0
    1.7288   -1.2205    8.2047 C   0  0  0  0  0  0  0  0  0  0  0  0
    1.8489   -0.0595    7.4775 C   0  0  0  0  0  0  0  0  0  0  0  0
    1.4142   -2.3323   10.3175 O   0  0  0  0  0  0  0  0  0  0  0  0
    0.5612   -2.4038   11.4275 C   0  0  0  0  0  0  0  0  0  0  0  0
    0.4349   -3.8358   11.8386 C   0  0  0  0  0  0  0  0  0  0  0  0
    0.6723   -4.8753   10.9900 C   0  0  0  0  0  0  0  0  0  0  0  0
    0.5328   -6.1653   11.4584 C   0  0  0  0  0  0  0  0  0  0  0  0
    0.1655   -6.4131   12.7417 C   0  0  0  0  0  0  0  0  0  0  0  0
   -0.0857   -5.3779   13.6380 C   0  0  0  0  0  0  0  0  0  0  0  0
    0.0588   -4.1076   13.1528 C   0  0  0  0  0  0  0  0  0  0  0  0
   -0.4405   -5.6973   15.0410 C   0  0  0  0  0  0  0  0  0  0  0  0
   -1.6774   -6.1222   15.3269 O   0  0  0  0  0  0  0  0  0  0  0  0
   -2.5318   -5.9268   16.3456 C   0  0  0  0  0  0  0  0  0  0  0  0
   -2.9988   -4.7110   16.8212 C   0  0  0  0  0  0  0  0  0  0  0  0
   -3.8801   -4.6054   17.8758 C   0  0  0  0  0  0  0  0  0  0  0  0
   -4.3482   -5.7214   18.5206 C   0  0  0  0  0  0  0  0  0  0  0  0
   -3.9113   -6.9499   18.0829 C   0  0  0  0  0  0  0  0  0  0  0  0
   -3.0410   -7.0531   17.0412 C   0  0  0  0  0  0  0  0  0  0  0  0
   -5.2851   -5.6358   19.6452 C   0  0  0  0  0  0  0  0  0  0  0  0
   -5.6466   -4.5085   20.1508 N   0  0  0  0  0  0  0  0  0  0  0  0
   -5.7964   -6.8383   20.1770 N   0  0  0  0  0  0  0  0  0  0  0  0
  1  2  1  0
  2  3  1  0
  2  4  1  0
  4  5  2  0
  5  6  1  0
  6  7  2  0
  7  8  1  0
  8  9  2  0
  7 10  1  0
  2 11  1  0
 11 12  2  0
 12 13  1  0
 13 14  2  0
 14 15  1  0
 15 16  2  0
 14 17  1  0
 17 18  1  0
 18 19  1  0
 19 20  2  0
 20 21  1  0
 21 22  2  0
 22 23  1  0
 23 24  2  0
 23 25  1  0
 25 26  1  0
 26 27  1  0
 27 28  2  0
 28 29  1  0
 29 30  2  0
 30 31  1  0
 31 32  2  0
 30 33  1  0
 33 34  2  0
 33 35  1  0
  9  4  1  0
 16 11  1  0
 24 19  1  0
 32 27  1  0
M  END
$$$$
