
     RDKit          3D

 35 38  0  0  0  0  0  0  0  0999 V2000
   -0.0963   -7.8956   12.8339 C   0  0  0  0  0  0  0  0  0  0  0  0
    0.2793   -6.7647   13.7577 C   0  0  0  0  0  0  0  0  0  0  0  0
    1.4803   -7.2121   14.5625 C   0  0  0  0  0  0  0  0  0  0  0  0
   -0.8182   -6.4429   14.6834 C   0  0  0  0  0  0  0  0  0  0  0  0
   -0.4979   -6.2726   16.0274 C   0  0  0  0  0  0  0  0  0  0  0  0
   -1.5091   -5.9714   16.9151 C   0  0  0  0  0  0  0  0  0  0  0  0
   -2.8398   -5.8328   16.5063 C   0  0  0  0  0  0  0  0  0  0  0  0
   -3.1410   -6.0043   15.1727 C   0  0  0  0  0  0  0  0  0  0  0  0
   -2.1258   -6.3086   14.2696 C   0  0  0  0  0  0  0  0  0  0  0  0
   -3.8136   -5.5286   17.4472 O   0  0  0  0  0  0  0  0  0  0  0  0
    0.5660   -5.5703   12.9445 C   0  0  0  0  0  0  0  0  0  0  0  0
   -0.1695   -4.4251   13.1580 C   0  0  0  0  0  0  0  0  0  0  0  0
    0.0518   -3.2646   12.4245 C   0  0  0  0  0  0  0  0  0  0  0  0
    1.0310   -3.2402   11.4517 C   0  0  0  0  0  0  0  0  0  0  0  0
    1.7784   -4.3770   11.2231 C   0  0  0  0  0  0  0  0  0  0  0  0
    1.5371   -5.5102   11.9639 C   0  0  0  0  0  0  0  0  0  0  0  0
    1.2703   -2.0816   10.7012 O   0  0  0  0  0  0  0  0  0  0  0  0
    2.2354   -2.0592    9.6849 C   0  0  0  0  0  0  0  0  0  0  0  0
    2.2367   -0.7007    9.0604 C   0  0  0  0  0  0  0  0  0  0  0  0
    3.2336   -0.2609    8.2420 C   0  0  0  0  0  0  0  0  0  0  0  0
    3.1489    1.0085    7.7086 C   0  0  0  0  0  0  0  0  0  0  0  0
    2.0960    1.8199    7.9844 C   0  0  0  0  0  0  0  0  0  0  0  0
    1.0587    1.4064    8.8157 C   0  0  0  0  0  0  0  0  0  0  0  0
    1.1628    0.1449    9.3331 C   0  0  0  0  0  0  0  0  0  0  0  0
   -0.0918    2.3102    9.0520 C   0  0  0  0  0  0  0  0  0  0  0  0
   -0.0705    3.5492    8.5452 O   0  0  0  0  0  0  0  0  0  0  0  0
   -0.9295    4.5826    8.5394 C   0  0  0  0  0  0  0  0  0  0  0  0
   -0.6147    5.9296    8.6337 C   0  0  0  0  0  0  0  0  0  0  0  0
   -1.5666    6.9265    8.6172 C   0  0  0  0  0  0  0  0  0  0  0  0
   -2.9005    6.6286    8.5049 C   0  0  0  0  0  0  0  0  0  0  0  0
   -3.2597    5.3045    8.4090 C   0  0  0  0  0  0  0  0  0  0  0  0
   -2.3188    4.3208    8.4252 C   0  0  0  0  0  0  0  0  0  0  0  0
   -3.9322    7.6702    8.4860 C   0  0  0  0  0  0  0  0  0  0  0  0
   -5.1812    7.3941    8.3424 N   0  0  0  0  0  0  0  0  0  0  0  0
   -3.5237    9.0127    8.6317 N   0  0  0  0  0  0  0  0  0  0  0  0
  1  2  1  0
  2  3  1  0
  2  4  1  0
  4  5  2  0
  5  6  1  0
  6  7  2  0
  7  8  1  0
  8  9  2  0
  7 10  1  0
  2 11  1  0
 11 12  2  0
 12 13  1  0
 13 14  2  0
 14 15  1  0
 15 16  2  0
 14 17  1  0
 17 18  1  0
 18 19  1  0
 19 20  2  0
 20 21  1  0
 21 22  2  0
 22 23  1  0
 23 24  2  0
 23 25  1  0
 25 26  1  0
 26 27  1  0
 27 28  2  0
 28 29  1  0
 29 30  2  0
 30 31  1  0
 31 32  2  0
 30 33  1  0
 33 34  2  0
 33 35  1  0
  9  4  1  0
 16 11  1  0
 24 19  1  0
 32 27  1  0
M  END
$$$$
