
     RDKit          3D

 35 38  0  0  0  0  0  0  0  0999 V2000
    1.9514    2.3010    6.2859 C   0  0  0  0  0  0  0  0  0  0  0  0
    0.8389    2.2616    7.3028 C   0  0  0  0  0  0  0  0  0  0  0  0
   -0.4673    2.1511    6.5467 C   0  0  0  0  0  0  0  0  0  0  0  0
    0.8134    3.4877    8.1159 C   0  0  0  0  0  0  0  0  0  0  0  0
   -0.1076    3.5504    9.1579 C   0  0  0  0  0  0  0  0  0  0  0  0
   -0.1517    4.6892    9.9338 C   0  0  0  0  0  0  0  0  0  0  0  0
    0.6976    5.7773    9.7054 C   0  0  0  0  0  0  0  0  0  0  0  0
    1.6037    5.7003    8.6703 C   0  0  0  0  0  0  0  0  0  0  0  0
    1.6549    4.5537    7.8818 C   0  0  0  0  0  0  0  0  0  0  0  0
    0.6056    6.8965   10.5209 O   0  0  0  0  0  0  0  0  0  0  0  0
    1.0634    1.1146    8.1995 C   0  0  0  0  0  0  0  0  0  0  0  0
    0.0104    0.2724    8.4825 C   0  0  0  0  0  0  0  0  0  0  0  0
    0.1566   -0.8274    9.3208 C   0  0  0  0  0  0  0  0  0  0  0  0
    1.3826   -1.0991    9.8941 C   0  0  0  0  0  0  0  0  0  0  0  0
    2.4495   -0.2675    9.6228 C   0  0  0  0  0  0  0  0  0  0  0  0
    2.2752    0.8129    8.7900 C   0  0  0  0  0  0  0  0  0  0  0  0
    1.5516   -2.2018   10.7416 O   0  0  0  0  0  0  0  0  0  0  0  0
    0.4684   -3.0148   11.1030 C   0  0  0  0  0  0  0  0  0  0  0  0
    0.9591   -4.0720   12.0395 C   0  0  0  0  0  0  0  0  0  0  0  0
    2.1744   -4.6743   11.9078 C   0  0  0  0  0  0  0  0  0  0  0  0
    2.5444   -5.6390   12.8217 C   0  0  0  0  0  0  0  0  0  0  0  0
    1.7228   -5.9949   13.8422 C   0  0  0  0  0  0  0  0  0  0  0  0
    0.4741   -5.4026   14.0096 C   0  0  0  0  0  0  0  0  0  0  0  0
    0.1279   -4.4489   13.0928 C   0  0  0  0  0  0  0  0  0  0  0  0
   -0.3693   -5.7916   15.1644 C   0  0  0  0  0  0  0  0  0  0  0  0
   -1.3212   -6.7189   15.0017 O   0  0  0  0  0  0  0  0  0  0  0  0
   -2.5305   -6.9370   15.5455 C   0  0  0  0  0  0  0  0  0  0  0  0
   -3.6473   -7.4615   14.9130 C   0  0  0  0  0  0  0  0  0  0  0  0
   -4.8527   -7.6533   15.5535 C   0  0  0  0  0  0  0  0  0  0  0  0
   -5.0103   -7.3274   16.8762 C   0  0  0  0  0  0  0  0  0  0  0  0
   -3.9285   -6.8032   17.5445 C   0  0  0  0  0  0  0  0  0  0  0  0
   -2.7385   -6.6144   16.9109 C   0  0  0  0  0  0  0  0  0  0  0  0
   -6.2820   -7.5206   17.5799 C   0  0  0  0  0  0  0  0  0  0  0  0
   -6.4431   -7.1765   18.8097 N   0  0  0  0  0  0  0  0  0  0  0  0
   -7.3523   -8.1040   16.8696 N   0  0  0  0  0  0  0  0  0  0  0  0
  1  2  1  0
  2  3  1  0
  2  4  1  0
  4  5  2  0
  5  6  1  0
  6  7  2  0
  7  8  1  0
  8  9  2  0
  7 10  1  0
  2 11  1  0
 11 12  2  0
 12 13  1  0
 13 14  2  0
 14 15  1  0
 15 16  2  0
 14 17  1  0
 17 18  1  0
 18 19  1  0
 19 20  2  0
 20 21  1  0
 21 22  2  0
 22 23  1  0
 23 24  2  0
 23 25  1  0
 25 26  1  0
 26 27  1  0
 27 28  2  0
 28 29  1  0
 29 30  2  0
 30 31  1  0
 31 32  2  0
 30 33  1  0
 33 34  2  0
 33 35  1  0
  9  4  1  0
 16 11  1  0
 24 19  1  0
 32 27  1  0
M  END
$$$$
