
     RDKit          3D

 35 38  0  0  0  0  0  0  0  0999 V2000
   -1.2545   -6.6613   10.6439 C   0  0  0  0  0  0  0  0  0  0  0  0
    0.1295   -6.3292   11.1416 C   0  0  0  0  0  0  0  0  0  0  0  0
    1.0865   -7.3307   10.5322 C   0  0  0  0  0  0  0  0  0  0  0  0
    0.2093   -6.4290   12.6074 C   0  0  0  0  0  0  0  0  0  0  0  0
   -0.8474   -7.0481   13.2691 C   0  0  0  0  0  0  0  0  0  0  0  0
   -0.7966   -7.1532   14.6430 C   0  0  0  0  0  0  0  0  0  0  0  0
    0.2801   -6.6584   15.3867 C   0  0  0  0  0  0  0  0  0  0  0  0
    1.3185   -6.0481   14.7174 C   0  0  0  0  0  0  0  0  0  0  0  0
    1.2751   -5.9379   13.3300 C   0  0  0  0  0  0  0  0  0  0  0  0
    0.2740   -6.7941   16.7679 O   0  0  0  0  0  0  0  0  0  0  0  0
    0.4483   -4.9446   10.7525 C   0  0  0  0  0  0  0  0  0  0  0  0
    1.1348   -4.7222    9.5789 C   0  0  0  0  0  0  0  0  0  0  0  0
    1.4659   -3.4398    9.1554 C   0  0  0  0  0  0  0  0  0  0  0  0
    1.1053   -2.3472    9.9182 C   0  0  0  0  0  0  0  0  0  0  0  0
    0.4172   -2.5493   11.0967 C   0  0  0  0  0  0  0  0  0  0  0  0
    0.1034   -3.8290   11.4905 C   0  0  0  0  0  0  0  0  0  0  0  0
    1.4291   -1.0467    9.5100 O   0  0  0  0  0  0  0  0  0  0  0  0
    1.0373   -0.5588    8.2557 C   0  0  0  0  0  0  0  0  0  0  0  0
    1.5527    0.8367    8.1062 C   0  0  0  0  0  0  0  0  0  0  0  0
    2.3776    1.2186    7.0910 C   0  0  0  0  0  0  0  0  0  0  0  0
    2.8017    2.5299    7.0322 C   0  0  0  0  0  0  0  0  0  0  0  0
    2.4131    3.4386    7.9629 C   0  0  0  0  0  0  0  0  0  0  0  0
    1.5715    3.0866    9.0145 C   0  0  0  0  0  0  0  0  0  0  0  0
    1.1630    1.7821    9.0533 C   0  0  0  0  0  0  0  0  0  0  0  0
    1.1381    4.1232    9.9809 C   0  0  0  0  0  0  0  0  0  0  0  0
    0.0429    3.9153   10.7223 O   0  0  0  0  0  0  0  0  0  0  0  0
   -0.6484    4.6472   11.6125 C   0  0  0  0  0  0  0  0  0  0  0  0
   -2.0259    4.6941   11.7635 C   0  0  0  0  0  0  0  0  0  0  0  0
   -2.6515    5.4764   12.7104 C   0  0  0  0  0  0  0  0  0  0  0  0
   -1.9269    6.2640   13.5678 C   0  0  0  0  0  0  0  0  0  0  0  0
   -0.5564    6.2497   13.4541 C   0  0  0  0  0  0  0  0  0  0  0  0
    0.0605    5.4765   12.5187 C   0  0  0  0  0  0  0  0  0  0  0  0
   -2.5684    7.1056   14.5826 C   0  0  0  0  0  0  0  0  0  0  0  0
   -3.8443    7.1207   14.7527 N   0  0  0  0  0  0  0  0  0  0  0  0
   -1.7445    7.9183   15.3894 N   0  0  0  0  0  0  0  0  0  0  0  0
  1  2  1  0
  2  3  1  0
  2  4  1  0
  4  5  2  0
  5  6  1  0
  6  7  2  0
  7  8  1  0
  8  9  2  0
  7 10  1  0
  2 11  1  0
 11 12  2  0
 12 13  1  0
 13 14  2  0
 14 15  1  0
 15 16  2  0
 14 17  1  0
 17 18  1  0
 18 19  1  0
 19 20  2  0
 20 21  1  0
 21 22  2  0
 22 23  1  0
 23 24  2  0
 23 25  1  0
 25 26  1  0
 26 27  1  0
 27 28  2  0
 28 29  1  0
 29 30  2  0
 30 31  1  0
 31 32  2  0
 30 33  1  0
 33 34  2  0
 33 35  1  0
  9  4  1  0
 16 11  1  0
 24 19  1  0
 32 27  1  0
M  END
$$$$
