
     RDKit          3D

 35 38  0  0  0  0  0  0  0  0999 V2000
    2.4648    2.7119    6.8121 C   0  0  0  0  0  0  0  0  0  0  0  0
    1.0915    2.4357    7.3698 C   0  0  0  0  0  0  0  0  0  0  0  0
    0.1301    2.3667    6.2031 C   0  0  0  0  0  0  0  0  0  0  0  0
    0.6574    3.5084    8.2787 C   0  0  0  0  0  0  0  0  0  0  0  0
    1.6309    4.3818    8.7553 C   0  0  0  0  0  0  0  0  0  0  0  0
    1.2494    5.3949    9.6092 C   0  0  0  0  0  0  0  0  0  0  0  0
   -0.0802    5.5692   10.0081 C   0  0  0  0  0  0  0  0  0  0  0  0
   -1.0323    4.6966    9.5278 C   0  0  0  0  0  0  0  0  0  0  0  0
   -0.6554    3.6707    8.6650 C   0  0  0  0  0  0  0  0  0  0  0  0
   -0.4026    6.6082   10.8700 O   0  0  0  0  0  0  0  0  0  0  0  0
    1.1387    1.1744    8.1294 C   0  0  0  0  0  0  0  0  0  0  0  0
    0.3935    0.1022    7.6900 C   0  0  0  0  0  0  0  0  0  0  0  0
    0.3946   -1.1154    8.3616 C   0  0  0  0  0  0  0  0  0  0  0  0
    1.1571   -1.2733    9.5015 C   0  0  0  0  0  0  0  0  0  0  0  0
    1.9105   -0.2113    9.9574 C   0  0  0  0  0  0  0  0  0  0  0  0
    1.8896    0.9811    9.2727 C   0  0  0  0  0  0  0  0  0  0  0  0
    1.1726   -2.4914   10.1933 O   0  0  0  0  0  0  0  0  0  0  0  0
    1.3296   -2.5358   11.5855 C   0  0  0  0  0  0  0  0  0  0  0  0
    1.1843   -3.9543   12.0353 C   0  0  0  0  0  0  0  0  0  0  0  0
    2.2392   -4.8100   12.1449 C   0  0  0  0  0  0  0  0  0  0  0  0
    2.0100   -6.1019   12.5708 C   0  0  0  0  0  0  0  0  0  0  0  0
    0.7595   -6.5305   12.8798 C   0  0  0  0  0  0  0  0  0  0  0  0
   -0.3430   -5.6862   12.7803 C   0  0  0  0  0  0  0  0  0  0  0  0
   -0.0929   -4.4103   12.3567 C   0  0  0  0  0  0  0  0  0  0  0  0
   -1.6824   -6.1856   13.1713 C   0  0  0  0  0  0  0  0  0  0  0  0
   -1.9251   -6.4843   14.4536 O   0  0  0  0  0  0  0  0  0  0  0  0
   -2.9995   -6.9145   15.1366 C   0  0  0  0  0  0  0  0  0  0  0  0
   -4.2659   -7.1626   14.6294 C   0  0  0  0  0  0  0  0  0  0  0  0
   -5.3132   -7.6066   15.4080 C   0  0  0  0  0  0  0  0  0  0  0  0
   -5.1508   -7.8291   16.7513 C   0  0  0  0  0  0  0  0  0  0  0  0
   -3.9107   -7.5958   17.2984 C   0  0  0  0  0  0  0  0  0  0  0  0
   -2.8770   -7.1575   16.5285 C   0  0  0  0  0  0  0  0  0  0  0  0
   -6.2488   -8.3002   17.6011 C   0  0  0  0  0  0  0  0  0  0  0  0
   -7.4740   -8.2868   17.2066 N   0  0  0  0  0  0  0  0  0  0  0  0
   -5.9330   -8.7802   18.8896 N   0  0  0  0  0  0  0  0  0  0  0  0
  1  2  1  0
  2  3  1  0
  2  4  1  0
  4  5  2  0
  5  6  1  0
  6  7  2  0
  7  8  1  0
  8  9  2  0
  7 10  1  0
  2 11  1  0
 11 12  2  0
 12 13  1  0
 13 14  2  0
 14 15  1  0
 15 16  2  0
 14 17  1  0
 17 18  1  0
 18 19  1  0
 19 20  2  0
 20 21  1  0
 21 22  2  0
 22 23  1  0
 23 24  2  0
 23 25  1  0
 25 26  1  0
 26 27  1  0
 27 28  2  0
 28 29  1  0
 29 30  2  0
 30 31  1  0
 31 32  2  0
 30 33  1  0
 33 34  2  0
 33 35  1  0
  9  4  1  0
 16 11  1  0
 24 19  1  0
 32 27  1  0
M  END
$$$$
