
     RDKit          3D

 35 38  0  0  0  0  0  0  0  0999 V2000
    1.9209    1.9766    6.4099 C   0  0  0  0  0  0  0  0  0  0  0  0
    0.6019    1.7884    7.1158 C   0  0  0  0  0  0  0  0  0  0  0  0
   -0.4663    1.6361    6.0547 C   0  0  0  0  0  0  0  0  0  0  0  0
    0.2735    2.9514    7.9552 C   0  0  0  0  0  0  0  0  0  0  0  0
    1.3090    3.8222    8.2826 C   0  0  0  0  0  0  0  0  0  0  0  0
    1.0269    4.9191    9.0690 C   0  0  0  0  0  0  0  0  0  0  0  0
   -0.2626    5.1805    9.5444 C   0  0  0  0  0  0  0  0  0  0  0  0
   -1.2771    4.3094    9.2118 C   0  0  0  0  0  0  0  0  0  0  0  0
   -1.0007    3.1992    8.4180 C   0  0  0  0  0  0  0  0  0  0  0  0
   -0.4842    6.3014   10.3322 O   0  0  0  0  0  0  0  0  0  0  0  0
    0.6995    0.6022    7.9837 C   0  0  0  0  0  0  0  0  0  0  0  0
   -0.3021   -0.3426    7.9381 C   0  0  0  0  0  0  0  0  0  0  0  0
   -0.2694   -1.4843    8.7314 C   0  0  0  0  0  0  0  0  0  0  0  0
    0.7875   -1.6941    9.5942 C   0  0  0  0  0  0  0  0  0  0  0  0
    1.8005   -0.7594    9.6543 C   0  0  0  0  0  0  0  0  0  0  0  0
    1.7413    0.3601    8.8580 C   0  0  0  0  0  0  0  0  0  0  0  0
    0.8401   -2.8373   10.4023 O   0  0  0  0  0  0  0  0  0  0  0  0
    1.9158   -3.0653   11.2717 C   0  0  0  0  0  0  0  0  0  0  0  0
    1.6229   -4.2887   12.0797 C   0  0  0  0  0  0  0  0  0  0  0  0
    2.2796   -5.4696   11.9030 C   0  0  0  0  0  0  0  0  0  0  0  0
    1.9436   -6.5462   12.6974 C   0  0  0  0  0  0  0  0  0  0  0  0
    0.9763   -6.4481   13.6449 C   0  0  0  0  0  0  0  0  0  0  0  0
    0.2834   -5.2590   13.8549 C   0  0  0  0  0  0  0  0  0  0  0  0
    0.6327   -4.2049   13.0570 C   0  0  0  0  0  0  0  0  0  0  0  0
   -0.7331   -5.1869   14.9310 C   0  0  0  0  0  0  0  0  0  0  0  0
   -1.7767   -6.0250   14.9079 O   0  0  0  0  0  0  0  0  0  0  0  0
   -2.8291   -6.2459   15.7139 C   0  0  0  0  0  0  0  0  0  0  0  0
   -3.5559   -7.4207   15.8339 C   0  0  0  0  0  0  0  0  0  0  0  0
   -4.6252   -7.5580   16.6929 C   0  0  0  0  0  0  0  0  0  0  0  0
   -5.0318   -6.5173   17.4879 C   0  0  0  0  0  0  0  0  0  0  0  0
   -4.3400   -5.3317   17.4020 C   0  0  0  0  0  0  0  0  0  0  0  0
   -3.2840   -5.1972   16.5534 C   0  0  0  0  0  0  0  0  0  0  0  0
   -6.1663   -6.6377   18.4088 C   0  0  0  0  0  0  0  0  0  0  0  0
   -6.8862   -7.7029   18.4726 N   0  0  0  0  0  0  0  0  0  0  0  0
   -6.4632   -5.5404   19.2443 N   0  0  0  0  0  0  0  0  0  0  0  0
  1  2  1  0
  2  3  1  0
  2  4  1  0
  4  5  2  0
  5  6  1  0
  6  7  2  0
  7  8  1  0
  8  9  2  0
  7 10  1  0
  2 11  1  0
 11 12  2  0
 12 13  1  0
 13 14  2  0
 14 15  1  0
 15 16  2  0
 14 17  1  0
 17 18  1  0
 18 19  1  0
 19 20  2  0
 20 21  1  0
 21 22  2  0
 22 23  1  0
 23 24  2  0
 23 25  1  0
 25 26  1  0
 26 27  1  0
 27 28  2  0
 28 29  1  0
 29 30  2  0
 30 31  1  0
 31 32  2  0
 30 33  1  0
 33 34  2  0
 33 35  1  0
  9  4  1  0
 16 11  1  0
 24 19  1  0
 32 27  1  0
M  END
$$$$
