
     RDKit          3D

 35 38  0  0  0  0  0  0  0  0999 V2000
    1.8477    2.2069    6.5734 C   0  0  0  0  0  0  0  0  0  0  0  0
    0.9844    2.4320    7.7888 C   0  0  0  0  0  0  0  0  0  0  0  0
   -0.4324    2.6580    7.3072 C   0  0  0  0  0  0  0  0  0  0  0  0
    1.4224    3.6160    8.5446 C   0  0  0  0  0  0  0  0  0  0  0  0
    0.4369    4.4163    9.1157 C   0  0  0  0  0  0  0  0  0  0  0  0
    0.8220    5.5322    9.8282 C   0  0  0  0  0  0  0  0  0  0  0  0
    2.1667    5.8812    9.9926 C   0  0  0  0  0  0  0  0  0  0  0  0
    3.1306    5.0793    9.4213 C   0  0  0  0  0  0  0  0  0  0  0  0
    2.7502    3.9504    8.7002 C   0  0  0  0  0  0  0  0  0  0  0  0
    2.4918    7.0170   10.7210 O   0  0  0  0  0  0  0  0  0  0  0  0
    1.0941    1.2541    8.6667 C   0  0  0  0  0  0  0  0  0  0  0  0
    0.2845    1.1724    9.7784 C   0  0  0  0  0  0  0  0  0  0  0  0
    0.3391    0.0874   10.6465 C   0  0  0  0  0  0  0  0  0  0  0  0
    1.2221   -0.9456   10.4042 C   0  0  0  0  0  0  0  0  0  0  0  0
    2.0412   -0.8822    9.2960 C   0  0  0  0  0  0  0  0  0  0  0  0
    1.9653    0.2032    8.4551 C   0  0  0  0  0  0  0  0  0  0  0  0
    1.2933   -2.0478   11.2661 O   0  0  0  0  0  0  0  0  0  0  0  0
    0.9058   -3.3273   10.8449 C   0  0  0  0  0  0  0  0  0  0  0  0
    1.0176   -4.2639   12.0051 C   0  0  0  0  0  0  0  0  0  0  0  0
    2.0622   -5.1240   12.1666 C   0  0  0  0  0  0  0  0  0  0  0  0
    2.0822   -5.9507   13.2707 C   0  0  0  0  0  0  0  0  0  0  0  0
    1.0851   -5.9209   14.1915 C   0  0  0  0  0  0  0  0  0  0  0  0
    0.0017   -5.0563   14.0611 C   0  0  0  0  0  0  0  0  0  0  0  0
    0.0023   -4.2457   12.9597 C   0  0  0  0  0  0  0  0  0  0  0  0
   -1.0402   -5.0276   15.1146 C   0  0  0  0  0  0  0  0  0  0  0  0
   -1.7708   -6.1249   15.3480 O   0  0  0  0  0  0  0  0  0  0  0  0
   -2.8040   -6.4180   16.1557 C   0  0  0  0  0  0  0  0  0  0  0  0
   -3.3585   -5.6023   17.1303 C   0  0  0  0  0  0  0  0  0  0  0  0
   -4.4247   -5.9872   17.9146 C   0  0  0  0  0  0  0  0  0  0  0  0
   -5.0016   -7.2225   17.7668 C   0  0  0  0  0  0  0  0  0  0  0  0
   -4.4838   -8.0659   16.8119 C   0  0  0  0  0  0  0  0  0  0  0  0
   -3.4310   -7.6847   16.0376 C   0  0  0  0  0  0  0  0  0  0  0  0
   -6.1355   -7.6559   18.5891 C   0  0  0  0  0  0  0  0  0  0  0  0
   -6.7369   -8.7764   18.3898 N   0  0  0  0  0  0  0  0  0  0  0  0
   -6.5669   -6.8043   19.6278 N   0  0  0  0  0  0  0  0  0  0  0  0
  1  2  1  0
  2  3  1  0
  2  4  1  0
  4  5  2  0
  5  6  1  0
  6  7  2  0
  7  8  1  0
  8  9  2  0
  7 10  1  0
  2 11  1  0
 11 12  2  0
 12 13  1  0
 13 14  2  0
 14 15  1  0
 15 16  2  0
 14 17  1  0
 17 18  1  0
 18 19  1  0
 19 20  2  0
 20 21  1  0
 21 22  2  0
 22 23  1  0
 23 24  2  0
 23 25  1  0
 25 26  1  0
 26 27  1  0
 27 28  2  0
 28 29  1  0
 29 30  2  0
 30 31  1  0
 31 32  2  0
 30 33  1  0
 33 34  2  0
 33 35  1  0
  9  4  1  0
 16 11  1  0
 24 19  1  0
 32 27  1  0
M  END
$$$$
