
     RDKit          3D

 35 38  0  0  0  0  0  0  0  0999 V2000
   -4.5960   -7.4703   14.5333 C   0  0  0  0  0  0  0  0  0  0  0  0
   -3.2461   -7.4831   15.2048 C   0  0  0  0  0  0  0  0  0  0  0  0
   -2.7260   -8.9035   15.1579 C   0  0  0  0  0  0  0  0  0  0  0  0
   -3.3437   -7.0605   16.6109 C   0  0  0  0  0  0  0  0  0  0  0  0
   -4.4903   -6.3728   16.9983 C   0  0  0  0  0  0  0  0  0  0  0  0
   -4.6052   -5.9652   18.3105 C   0  0  0  0  0  0  0  0  0  0  0  0
   -3.6084   -6.2216   19.2581 C   0  0  0  0  0  0  0  0  0  0  0  0
   -2.4794   -6.9034   18.8593 C   0  0  0  0  0  0  0  0  0  0  0  0
   -2.3555   -7.3186   17.5360 C   0  0  0  0  0  0  0  0  0  0  0  0
   -3.7817   -5.7860   20.5644 O   0  0  0  0  0  0  0  0  0  0  0  0
   -2.3614   -6.5412   14.4974 C   0  0  0  0  0  0  0  0  0  0  0  0
   -1.9966   -6.8160   13.1976 C   0  0  0  0  0  0  0  0  0  0  0  0
   -1.1647   -5.9678   12.4750 C   0  0  0  0  0  0  0  0  0  0  0  0
   -0.6814   -4.8141   13.0591 C   0  0  0  0  0  0  0  0  0  0  0  0
   -1.0355   -4.5213   14.3599 C   0  0  0  0  0  0  0  0  0  0  0  0
   -1.8597   -5.3789   15.0501 C   0  0  0  0  0  0  0  0  0  0  0  0
    0.1580   -3.9458   12.3490 O   0  0  0  0  0  0  0  0  0  0  0  0
    0.3724   -4.1041   10.9729 C   0  0  0  0  0  0  0  0  0  0  0  0
    1.3009   -3.0277   10.5095 C   0  0  0  0  0  0  0  0  0  0  0  0
    2.6043   -3.2601   10.1867 C   0  0  0  0  0  0  0  0  0  0  0  0
    3.3867   -2.2048    9.7659 C   0  0  0  0  0  0  0  0  0  0  0  0
    2.8821   -0.9481    9.6693 C   0  0  0  0  0  0  0  0  0  0  0  0
    1.5560   -0.6714    9.9902 C   0  0  0  0  0  0  0  0  0  0  0  0
    0.7986   -1.7319   10.4045 C   0  0  0  0  0  0  0  0  0  0  0  0
    1.0379    0.7074    9.8264 C   0  0  0  0  0  0  0  0  0  0  0  0
    1.1668    1.3230    8.6445 O   0  0  0  0  0  0  0  0  0  0  0  0
    0.7853    2.5141    8.1530 C   0  0  0  0  0  0  0  0  0  0  0  0
    0.9744    2.9831    6.8619 C   0  0  0  0  0  0  0  0  0  0  0  0
    0.5455    4.2244    6.4433 C   0  0  0  0  0  0  0  0  0  0  0  0
   -0.1030    5.0749    7.3015 C   0  0  0  0  0  0  0  0  0  0  0  0
   -0.3125    4.6517    8.5932 C   0  0  0  0  0  0  0  0  0  0  0  0
    0.1114    3.4255    9.0055 C   0  0  0  0  0  0  0  0  0  0  0  0
   -0.5681    6.4003    6.8810 C   0  0  0  0  0  0  0  0  0  0  0  0
   -0.4423    6.8176    5.6698 N   0  0  0  0  0  0  0  0  0  0  0  0
   -1.1705    7.2311    7.8491 N   0  0  0  0  0  0  0  0  0  0  0  0
  1  2  1  0
  2  3  1  0
  2  4  1  0
  4  5  2  0
  5  6  1  0
  6  7  2  0
  7  8  1  0
  8  9  2  0
  7 10  1  0
  2 11  1  0
 11 12  2  0
 12 13  1  0
 13 14  2  0
 14 15  1  0
 15 16  2  0
 14 17  1  0
 17 18  1  0
 18 19  1  0
 19 20  2  0
 20 21  1  0
 21 22  2  0
 22 23  1  0
 23 24  2  0
 23 25  1  0
 25 26  1  0
 26 27  1  0
 27 28  2  0
 28 29  1  0
 29 30  2  0
 30 31  1  0
 31 32  2  0
 30 33  1  0
 33 34  2  0
 33 35  1  0
  9  4  1  0
 16 11  1  0
 24 19  1  0
 32 27  1  0
M  END
$$$$
