
     RDKit          3D

 35 38  0  0  0  0  0  0  0  0999 V2000
    2.7264    2.0671    7.2677 C   0  0  0  0  0  0  0  0  0  0  0  0
    1.2907    1.7635    7.6143 C   0  0  0  0  0  0  0  0  0  0  0  0
    0.5412    1.5574    6.3158 C   0  0  0  0  0  0  0  0  0  0  0  0
    0.6701    2.8780    8.3478 C   0  0  0  0  0  0  0  0  0  0  0  0
    1.4925    3.9335    8.7315 C   0  0  0  0  0  0  0  0  0  0  0  0
    0.9349    4.9894    9.4209 C   0  0  0  0  0  0  0  0  0  0  0  0
   -0.4257    5.0302    9.7439 C   0  0  0  0  0  0  0  0  0  0  0  0
   -1.2268    3.9779    9.3572 C   0  0  0  0  0  0  0  0  0  0  0  0
   -0.6716    2.9076    8.6606 C   0  0  0  0  0  0  0  0  0  0  0  0
   -0.9286    6.1207   10.4396 O   0  0  0  0  0  0  0  0  0  0  0  0
    1.2584    0.5672    8.4733 C   0  0  0  0  0  0  0  0  0  0  0  0
    1.5999    0.6903    9.8023 C   0  0  0  0  0  0  0  0  0  0  0  0
    1.5895   -0.3998   10.6655 C   0  0  0  0  0  0  0  0  0  0  0  0
    1.2298   -1.6473   10.1964 C   0  0  0  0  0  0  0  0  0  0  0  0
    0.8844   -1.7909    8.8685 C   0  0  0  0  0  0  0  0  0  0  0  0
    0.9039   -0.6950    8.0381 C   0  0  0  0  0  0  0  0  0  0  0  0
    1.2128   -2.7588   11.0490 O   0  0  0  0  0  0  0  0  0  0  0  0
    0.8840   -4.0358   10.5736 C   0  0  0  0  0  0  0  0  0  0  0  0
    1.0152   -5.0106   11.6997 C   0  0  0  0  0  0  0  0  0  0  0  0
    2.2002   -5.5857   12.0493 C   0  0  0  0  0  0  0  0  0  0  0  0
    2.2262   -6.4733   13.1050 C   0  0  0  0  0  0  0  0  0  0  0  0
    1.0983   -6.7804   13.7954 C   0  0  0  0  0  0  0  0  0  0  0  0
   -0.1305   -6.2137   13.4681 C   0  0  0  0  0  0  0  0  0  0  0  0
   -0.1332   -5.3365   12.4190 C   0  0  0  0  0  0  0  0  0  0  0  0
   -1.3261   -6.5449   14.2788 C   0  0  0  0  0  0  0  0  0  0  0  0
   -1.7751   -5.6630   15.1803 O   0  0  0  0  0  0  0  0  0  0  0  0
   -2.8230   -5.6214   16.0207 C   0  0  0  0  0  0  0  0  0  0  0  0
   -3.1281   -4.6150   16.9244 C   0  0  0  0  0  0  0  0  0  0  0  0
   -4.2312   -4.6558   17.7500 C   0  0  0  0  0  0  0  0  0  0  0  0
   -5.0996   -5.7165   17.7177 C   0  0  0  0  0  0  0  0  0  0  0  0
   -4.8364   -6.7389   16.8363 C   0  0  0  0  0  0  0  0  0  0  0  0
   -3.7467   -6.6976   16.0213 C   0  0  0  0  0  0  0  0  0  0  0  0
   -6.2792   -5.7841   18.5860 C   0  0  0  0  0  0  0  0  0  0  0  0
   -7.0962   -6.7783   18.5548 N   0  0  0  0  0  0  0  0  0  0  0  0
   -6.5095   -4.7158   19.4782 N   0  0  0  0  0  0  0  0  0  0  0  0
  1  2  1  0
  2  3  1  0
  2  4  1  0
  4  5  2  0
  5  6  1  0
  6  7  2  0
  7  8  1  0
  8  9  2  0
  7 10  1  0
  2 11  1  0
 11 12  2  0
 12 13  1  0
 13 14  2  0
 14 15  1  0
 15 16  2  0
 14 17  1  0
 17 18  1  0
 18 19  1  0
 19 20  2  0
 20 21  1  0
 21 22  2  0
 22 23  1  0
 23 24  2  0
 23 25  1  0
 25 26  1  0
 26 27  1  0
 27 28  2  0
 28 29  1  0
 29 30  2  0
 30 31  1  0
 31 32  2  0
 30 33  1  0
 33 34  2  0
 33 35  1  0
  9  4  1  0
 16 11  1  0
 24 19  1  0
 32 27  1  0
M  END
$$$$
