
     RDKit          3D

 35 38  0  0  0  0  0  0  0  0999 V2000
    2.6518    1.3188    6.5187 C   0  0  0  0  0  0  0  0  0  0  0  0
    1.2320    1.3725    7.0234 C   0  0  0  0  0  0  0  0  0  0  0  0
    0.3167    1.3058    5.8201 C   0  0  0  0  0  0  0  0  0  0  0  0
    0.9693    2.6249    7.7497 C   0  0  0  0  0  0  0  0  0  0  0  0
    1.9857    3.1258    8.5582 C   0  0  0  0  0  0  0  0  0  0  0  0
    1.7636    4.2977    9.2500 C   0  0  0  0  0  0  0  0  0  0  0  0
    0.5532    4.9937    9.1631 C   0  0  0  0  0  0  0  0  0  0  0  0
   -0.4434    4.4853    8.3588 C   0  0  0  0  0  0  0  0  0  0  0  0
   -0.2272    3.3023    7.6567 C   0  0  0  0  0  0  0  0  0  0  0  0
    0.3893    6.1685    9.8837 O   0  0  0  0  0  0  0  0  0  0  0  0
    1.0202    0.2461    7.9488 C   0  0  0  0  0  0  0  0  0  0  0  0
    2.0964   -0.2546    8.6483 C   0  0  0  0  0  0  0  0  0  0  0  0
    1.9632   -1.3160    9.5368 C   0  0  0  0  0  0  0  0  0  0  0  0
    0.7268   -1.8967    9.7367 C   0  0  0  0  0  0  0  0  0  0  0  0
   -0.3632   -1.4094    9.0455 C   0  0  0  0  0  0  0  0  0  0  0  0
   -0.2013   -0.3587    8.1732 C   0  0  0  0  0  0  0  0  0  0  0  0
    0.5706   -2.9670   10.6271 O   0  0  0  0  0  0  0  0  0  0  0  0
    1.6604   -3.4858   11.3399 C   0  0  0  0  0  0  0  0  0  0  0  0
    1.1672   -4.5786   12.2333 C   0  0  0  0  0  0  0  0  0  0  0  0
    1.3492   -5.9009   11.9586 C   0  0  0  0  0  0  0  0  0  0  0  0
    0.8611   -6.8402   12.8430 C   0  0  0  0  0  0  0  0  0  0  0  0
    0.2074   -6.4705   13.9739 C   0  0  0  0  0  0  0  0  0  0  0  0
    0.0019   -5.1301   14.2888 C   0  0  0  0  0  0  0  0  0  0  0  0
    0.4942   -4.2161   13.3987 C   0  0  0  0  0  0  0  0  0  0  0  0
   -0.6778   -4.7741   15.5567 C   0  0  0  0  0  0  0  0  0  0  0  0
   -1.5265   -5.6455   16.1159 O   0  0  0  0  0  0  0  0  0  0  0  0
   -2.5779   -5.5403   16.9461 C   0  0  0  0  0  0  0  0  0  0  0  0
   -3.4793   -4.4894   17.0217 C   0  0  0  0  0  0  0  0  0  0  0  0
   -4.5351   -4.4675   17.9077 C   0  0  0  0  0  0  0  0  0  0  0  0
   -4.7503   -5.5061   18.7768 C   0  0  0  0  0  0  0  0  0  0  0  0
   -3.8805   -6.5707   18.7377 C   0  0  0  0  0  0  0  0  0  0  0  0
   -2.8382   -6.5913   17.8622 C   0  0  0  0  0  0  0  0  0  0  0  0
   -5.8651   -5.5064   19.7292 C   0  0  0  0  0  0  0  0  0  0  0  0
   -6.0757   -6.4867   20.5364 N   0  0  0  0  0  0  0  0  0  0  0  0
   -6.7241   -4.3874   19.7470 N   0  0  0  0  0  0  0  0  0  0  0  0
  1  2  1  0
  2  3  1  0
  2  4  1  0
  4  5  2  0
  5  6  1  0
  6  7  2  0
  7  8  1  0
  8  9  2  0
  7 10  1  0
  2 11  1  0
 11 12  2  0
 12 13  1  0
 13 14  2  0
 14 15  1  0
 15 16  2  0
 14 17  1  0
 17 18  1  0
 18 19  1  0
 19 20  2  0
 20 21  1  0
 21 22  2  0
 22 23  1  0
 23 24  2  0
 23 25  1  0
 25 26  1  0
 26 27  1  0
 27 28  2  0
 28 29  1  0
 29 30  2  0
 30 31  1  0
 31 32  2  0
 30 33  1  0
 33 34  2  0
 33 35  1  0
  9  4  1  0
 16 11  1  0
 24 19  1  0
 32 27  1  0
M  END
$$$$
