
     RDKit          3D

 35 38  0  0  0  0  0  0  0  0999 V2000
   -0.5104   -8.8645   14.5085 C   0  0  0  0  0  0  0  0  0  0  0  0
   -0.2450   -7.4911   15.0712 C   0  0  0  0  0  0  0  0  0  0  0  0
    1.0632   -7.5532   15.8294 C   0  0  0  0  0  0  0  0  0  0  0  0
   -1.3105   -7.0774   15.9978 C   0  0  0  0  0  0  0  0  0  0  0  0
   -2.4756   -7.8387   16.0205 C   0  0  0  0  0  0  0  0  0  0  0  0
   -3.4893   -7.4709   16.8797 C   0  0  0  0  0  0  0  0  0  0  0  0
   -3.3811   -6.3609   17.7244 C   0  0  0  0  0  0  0  0  0  0  0  0
   -2.2217   -5.6172   17.6904 C   0  0  0  0  0  0  0  0  0  0  0  0
   -1.1931   -5.9819   16.8256 C   0  0  0  0  0  0  0  0  0  0  0  0
   -4.4360   -6.0407   18.5675 O   0  0  0  0  0  0  0  0  0  0  0  0
   -0.1991   -6.5285   13.9570 C   0  0  0  0  0  0  0  0  0  0  0  0
    0.9555   -5.8073   13.7451 C   0  0  0  0  0  0  0  0  0  0  0  0
    1.0632   -4.8837   12.7111 C   0  0  0  0  0  0  0  0  0  0  0  0
   -0.0052   -4.6701   11.8635 C   0  0  0  0  0  0  0  0  0  0  0  0
   -1.1701   -5.3828   12.0593 C   0  0  0  0  0  0  0  0  0  0  0  0
   -1.2478   -6.2895   13.0902 C   0  0  0  0  0  0  0  0  0  0  0  0
    0.0821   -3.7442   10.8157 O   0  0  0  0  0  0  0  0  0  0  0  0
    1.2699   -3.0458   10.5587 C   0  0  0  0  0  0  0  0  0  0  0  0
    1.0606   -2.1768    9.3601 C   0  0  0  0  0  0  0  0  0  0  0  0
    1.1012   -2.6510    8.0832 C   0  0  0  0  0  0  0  0  0  0  0  0
    0.8940   -1.7747    7.0382 C   0  0  0  0  0  0  0  0  0  0  0  0
    0.6521   -0.4575    7.2606 C   0  0  0  0  0  0  0  0  0  0  0  0
    0.6030    0.0643    8.5504 C   0  0  0  0  0  0  0  0  0  0  0  0
    0.8108   -0.8219    9.5710 C   0  0  0  0  0  0  0  0  0  0  0  0
    0.2915    1.4999    8.7456 C   0  0  0  0  0  0  0  0  0  0  0  0
    1.2927    2.3794    8.8734 O   0  0  0  0  0  0  0  0  0  0  0  0
    1.3652    3.7034    9.0918 C   0  0  0  0  0  0  0  0  0  0  0  0
    2.1325    4.3503   10.0486 C   0  0  0  0  0  0  0  0  0  0  0  0
    2.1461    5.7203   10.2000 C   0  0  0  0  0  0  0  0  0  0  0  0
    1.3851    6.5283    9.3948 C   0  0  0  0  0  0  0  0  0  0  0  0
    0.6073    5.9299    8.4312 C   0  0  0  0  0  0  0  0  0  0  0  0
    0.5947    4.5767    8.2824 C   0  0  0  0  0  0  0  0  0  0  0  0
    1.3813    7.9876    9.5363 C   0  0  0  0  0  0  0  0  0  0  0  0
    2.0818    8.5904   10.4323 N   0  0  0  0  0  0  0  0  0  0  0  0
    0.5779    8.7387    8.6527 N   0  0  0  0  0  0  0  0  0  0  0  0
  1  2  1  0
  2  3  1  0
  2  4  1  0
  4  5  2  0
  5  6  1  0
  6  7  2  0
  7  8  1  0
  8  9  2  0
  7 10  1  0
  2 11  1  0
 11 12  2  0
 12 13  1  0
 13 14  2  0
 14 15  1  0
 15 16  2  0
 14 17  1  0
 17 18  1  0
 18 19  1  0
 19 20  2  0
 20 21  1  0
 21 22  2  0
 22 23  1  0
 23 24  2  0
 23 25  1  0
 25 26  1  0
 26 27  1  0
 27 28  2  0
 28 29  1  0
 29 30  2  0
 30 31  1  0
 31 32  2  0
 30 33  1  0
 33 34  2  0
 33 35  1  0
  9  4  1  0
 16 11  1  0
 24 19  1  0
 32 27  1  0
M  END
$$$$
