
     RDKit          3D

 35 38  0  0  0  0  0  0  0  0999 V2000
    2.3966    1.6570    6.5587 C   0  0  0  0  0  0  0  0  0  0  0  0
    1.3355    1.6528    7.6298 C   0  0  0  0  0  0  0  0  0  0  0  0
   -0.0042    1.4899    6.9449 C   0  0  0  0  0  0  0  0  0  0  0  0
    1.3315    2.9162    8.3841 C   0  0  0  0  0  0  0  0  0  0  0  0
    0.0973    3.4327    8.7685 C   0  0  0  0  0  0  0  0  0  0  0  0
    0.0670    4.6160    9.4756 C   0  0  0  0  0  0  0  0  0  0  0  0
    1.2341    5.3085    9.8156 C   0  0  0  0  0  0  0  0  0  0  0  0
    2.4481    4.7846    9.4279 C   0  0  0  0  0  0  0  0  0  0  0  0
    2.4876    3.5899    8.7137 C   0  0  0  0  0  0  0  0  0  0  0  0
    1.1390    6.4953   10.5288 O   0  0  0  0  0  0  0  0  0  0  0  0
    1.6200    0.5531    8.5677 C   0  0  0  0  0  0  0  0  0  0  0  0
    2.3460   -0.5309    8.1249 C   0  0  0  0  0  0  0  0  0  0  0  0
    2.6483   -1.6009    8.9600 C   0  0  0  0  0  0  0  0  0  0  0  0
    2.2181   -1.5947   10.2717 C   0  0  0  0  0  0  0  0  0  0  0  0
    1.4899   -0.5180   10.7341 C   0  0  0  0  0  0  0  0  0  0  0  0
    1.2058    0.5260    9.8853 C   0  0  0  0  0  0  0  0  0  0  0  0
    2.5116   -2.6625   11.1299 O   0  0  0  0  0  0  0  0  0  0  0  0
    1.7680   -2.8836   12.2973 C   0  0  0  0  0  0  0  0  0  0  0  0
    1.4850   -4.3474   12.4107 C   0  0  0  0  0  0  0  0  0  0  0  0
    2.3623   -5.3068   12.0021 C   0  0  0  0  0  0  0  0  0  0  0  0
    2.0163   -6.6341   12.1480 C   0  0  0  0  0  0  0  0  0  0  0  0
    0.8246   -6.9965   12.6881 C   0  0  0  0  0  0  0  0  0  0  0  0
   -0.0975   -6.0457   13.1169 C   0  0  0  0  0  0  0  0  0  0  0  0
    0.2660   -4.7364   12.9632 C   0  0  0  0  0  0  0  0  0  0  0  0
   -1.3663   -6.4891   13.7412 C   0  0  0  0  0  0  0  0  0  0  0  0
   -1.8139   -5.8647   14.8376 O   0  0  0  0  0  0  0  0  0  0  0  0
   -2.8701   -6.0269   15.6525 C   0  0  0  0  0  0  0  0  0  0  0  0
   -3.6097   -7.1848   15.8392 C   0  0  0  0  0  0  0  0  0  0  0  0
   -4.6819   -7.2604   16.7021 C   0  0  0  0  0  0  0  0  0  0  0  0
   -5.0788   -6.1707   17.4339 C   0  0  0  0  0  0  0  0  0  0  0  0
   -4.3742   -4.9995   17.2805 C   0  0  0  0  0  0  0  0  0  0  0  0
   -3.3153   -4.9261   16.4281 C   0  0  0  0  0  0  0  0  0  0  0  0
   -6.2163   -6.2250   18.3574 C   0  0  0  0  0  0  0  0  0  0  0  0
   -6.9065   -7.2975   18.5312 N   0  0  0  0  0  0  0  0  0  0  0  0
   -6.5500   -5.0540   19.0701 N   0  0  0  0  0  0  0  0  0  0  0  0
  1  2  1  0
  2  3  1  0
  2  4  1  0
  4  5  2  0
  5  6  1  0
  6  7  2  0
  7  8  1  0
  8  9  2  0
  7 10  1  0
  2 11  1  0
 11 12  2  0
 12 13  1  0
 13 14  2  0
 14 15  1  0
 15 16  2  0
 14 17  1  0
 17 18  1  0
 18 19  1  0
 19 20  2  0
 20 21  1  0
 21 22  2  0
 22 23  1  0
 23 24  2  0
 23 25  1  0
 25 26  1  0
 26 27  1  0
 27 28  2  0
 28 29  1  0
 29 30  2  0
 30 31  1  0
 31 32  2  0
 30 33  1  0
 33 34  2  0
 33 35  1  0
  9  4  1  0
 16 11  1  0
 24 19  1  0
 32 27  1  0
M  END
$$$$
