
     RDKit          3D

 35 38  0  0  0  0  0  0  0  0999 V2000
    1.9609    2.0578    6.9634 C   0  0  0  0  0  0  0  0  0  0  0  0
    0.7244    1.9422    7.8184 C   0  0  0  0  0  0  0  0  0  0  0  0
   -0.4753    2.0184    6.8991 C   0  0  0  0  0  0  0  0  0  0  0  0
    0.6440    3.0406    8.7943 C   0  0  0  0  0  0  0  0  0  0  0  0
   -0.4402    3.0481    9.6673 C   0  0  0  0  0  0  0  0  0  0  0  0
   -0.5387    4.0675   10.5906 C   0  0  0  0  0  0  0  0  0  0  0  0
    0.4142    5.0883   10.6747 C   0  0  0  0  0  0  0  0  0  0  0  0
    1.4817    5.0671    9.8037 C   0  0  0  0  0  0  0  0  0  0  0  0
    1.5887    4.0412    8.8682 C   0  0  0  0  0  0  0  0  0  0  0  0
    0.2604    6.0875   11.6256 O   0  0  0  0  0  0  0  0  0  0  0  0
    0.7819    0.6687    8.5565 C   0  0  0  0  0  0  0  0  0  0  0  0
   -0.2102   -0.2655    8.3542 C   0  0  0  0  0  0  0  0  0  0  0  0
   -0.2137   -1.4866    9.0195 C   0  0  0  0  0  0  0  0  0  0  0  0
    0.7963   -1.7890    9.9107 C   0  0  0  0  0  0  0  0  0  0  0  0
    1.7990   -0.8664   10.1269 C   0  0  0  0  0  0  0  0  0  0  0  0
    1.7763    0.3330    9.4547 C   0  0  0  0  0  0  0  0  0  0  0  0
    0.8118   -3.0133   10.5917 O   0  0  0  0  0  0  0  0  0  0  0  0
    1.5549   -3.1824   11.7681 C   0  0  0  0  0  0  0  0  0  0  0  0
    1.3296   -4.5700   12.2773 C   0  0  0  0  0  0  0  0  0  0  0  0
    1.9478   -5.6638   11.7495 C   0  0  0  0  0  0  0  0  0  0  0  0
    1.6802   -6.9062   12.2860 C   0  0  0  0  0  0  0  0  0  0  0  0
    0.8173   -7.0547   13.3234 C   0  0  0  0  0  0  0  0  0  0  0  0
    0.1667   -5.9616   13.8891 C   0  0  0  0  0  0  0  0  0  0  0  0
    0.4468   -4.7400   13.3423 C   0  0  0  0  0  0  0  0  0  0  0  0
   -0.7323   -6.1675   15.0493 C   0  0  0  0  0  0  0  0  0  0  0  0
   -2.0006   -5.7442   14.9826 O   0  0  0  0  0  0  0  0  0  0  0  0
   -3.0574   -5.7918   15.8113 C   0  0  0  0  0  0  0  0  0  0  0  0
   -3.1528   -6.4961   17.0018 C   0  0  0  0  0  0  0  0  0  0  0  0
   -4.2817   -6.4850   17.7927 C   0  0  0  0  0  0  0  0  0  0  0  0
   -5.3899   -5.7618   17.4331 C   0  0  0  0  0  0  0  0  0  0  0  0
   -5.3408   -5.0475   16.2589 C   0  0  0  0  0  0  0  0  0  0  0  0
   -4.2252   -5.0590   15.4786 C   0  0  0  0  0  0  0  0  0  0  0  0
   -6.6030   -5.7345   18.2562 C   0  0  0  0  0  0  0  0  0  0  0  0
   -6.6867   -6.3683   19.3735 N   0  0  0  0  0  0  0  0  0  0  0  0
   -7.7038   -4.9838   17.7925 N   0  0  0  0  0  0  0  0  0  0  0  0
  1  2  1  0
  2  3  1  0
  2  4  1  0
  4  5  2  0
  5  6  1  0
  6  7  2  0
  7  8  1  0
  8  9  2  0
  7 10  1  0
  2 11  1  0
 11 12  2  0
 12 13  1  0
 13 14  2  0
 14 15  1  0
 15 16  2  0
 14 17  1  0
 17 18  1  0
 18 19  1  0
 19 20  2  0
 20 21  1  0
 21 22  2  0
 22 23  1  0
 23 24  2  0
 23 25  1  0
 25 26  1  0
 26 27  1  0
 27 28  2  0
 28 29  1  0
 29 30  2  0
 30 31  1  0
 31 32  2  0
 30 33  1  0
 33 34  2  0
 33 35  1  0
  9  4  1  0
 16 11  1  0
 24 19  1  0
 32 27  1  0
M  END
$$$$
