
     RDKit          3D

 35 38  0  0  0  0  0  0  0  0999 V2000
    0.4724   -8.3413   11.6956 C   0  0  0  0  0  0  0  0  0  0  0  0
    0.5240   -7.2010   12.6807 C   0  0  0  0  0  0  0  0  0  0  0  0
    1.6784   -7.4637   13.6234 C   0  0  0  0  0  0  0  0  0  0  0  0
   -0.7180   -7.1149   13.4650 C   0  0  0  0  0  0  0  0  0  0  0  0
   -0.7961   -6.1251   14.4406 C   0  0  0  0  0  0  0  0  0  0  0  0
   -1.9493   -6.0245   15.1897 C   0  0  0  0  0  0  0  0  0  0  0  0
   -3.0368   -6.8837   14.9986 C   0  0  0  0  0  0  0  0  0  0  0  0
   -2.9443   -7.8585   14.0292 C   0  0  0  0  0  0  0  0  0  0  0  0
   -1.7832   -7.9668   13.2682 C   0  0  0  0  0  0  0  0  0  0  0  0
   -4.1709   -6.7327   15.7842 O   0  0  0  0  0  0  0  0  0  0  0  0
    0.6891   -5.9424   11.9333 C   0  0  0  0  0  0  0  0  0  0  0  0
   -0.1896   -5.6518   10.9128 C   0  0  0  0  0  0  0  0  0  0  0  0
   -0.0881   -4.4809   10.1695 C   0  0  0  0  0  0  0  0  0  0  0  0
    0.9139   -3.5729   10.4471 C   0  0  0  0  0  0  0  0  0  0  0  0
    1.8037   -3.8458   11.4653 C   0  0  0  0  0  0  0  0  0  0  0  0
    1.6789   -5.0119   12.1835 C   0  0  0  0  0  0  0  0  0  0  0  0
    1.0342   -2.3873    9.7104 O   0  0  0  0  0  0  0  0  0  0  0  0
    2.0922   -1.4955    9.9342 C   0  0  0  0  0  0  0  0  0  0  0  0
    1.9342   -0.3293    9.0120 C   0  0  0  0  0  0  0  0  0  0  0  0
    1.7838   -0.4639    7.6643 C   0  0  0  0  0  0  0  0  0  0  0  0
    1.6421    0.6699    6.8914 C   0  0  0  0  0  0  0  0  0  0  0  0
    1.6503    1.9079    7.4484 C   0  0  0  0  0  0  0  0  0  0  0  0
    1.8017    2.0859    8.8208 C   0  0  0  0  0  0  0  0  0  0  0  0
    1.9401    0.9488    9.5678 C   0  0  0  0  0  0  0  0  0  0  0  0
    1.7594    3.4542    9.3884 C   0  0  0  0  0  0  0  0  0  0  0  0
    0.5774    4.0053    9.6909 O   0  0  0  0  0  0  0  0  0  0  0  0
    0.1916    5.1484   10.2826 C   0  0  0  0  0  0  0  0  0  0  0  0
    1.0119    6.1641   10.7498 C   0  0  0  0  0  0  0  0  0  0  0  0
    0.5258    7.3085   11.3448 C   0  0  0  0  0  0  0  0  0  0  0  0
   -0.8219    7.5029   11.5079 C   0  0  0  0  0  0  0  0  0  0  0  0
   -1.6740    6.5210   11.0595 C   0  0  0  0  0  0  0  0  0  0  0  0
   -1.1929    5.3912   10.4719 C   0  0  0  0  0  0  0  0  0  0  0  0
   -1.3639    8.7106   12.1383 C   0  0  0  0  0  0  0  0  0  0  0  0
   -0.6086    9.6776   12.5276 N   0  0  0  0  0  0  0  0  0  0  0  0
   -2.7608    8.7978   12.3155 N   0  0  0  0  0  0  0  0  0  0  0  0
  1  2  1  0
  2  3  1  0
  2  4  1  0
  4  5  2  0
  5  6  1  0
  6  7  2  0
  7  8  1  0
  8  9  2  0
  7 10  1  0
  2 11  1  0
 11 12  2  0
 12 13  1  0
 13 14  2  0
 14 15  1  0
 15 16  2  0
 14 17  1  0
 17 18  1  0
 18 19  1  0
 19 20  2  0
 20 21  1  0
 21 22  2  0
 22 23  1  0
 23 24  2  0
 23 25  1  0
 25 26  1  0
 26 27  1  0
 27 28  2  0
 28 29  1  0
 29 30  2  0
 30 31  1  0
 31 32  2  0
 30 33  1  0
 33 34  2  0
 33 35  1  0
  9  4  1  0
 16 11  1  0
 24 19  1  0
 32 27  1  0
M  END
$$$$
