
     RDKit          3D

 35 38  0  0  0  0  0  0  0  0999 V2000
    0.5364   -8.1333   14.6087 C   0  0  0  0  0  0  0  0  0  0  0  0
    0.3272   -6.6955   15.0114 C   0  0  0  0  0  0  0  0  0  0  0  0
    1.5281   -6.2706   15.8284 C   0  0  0  0  0  0  0  0  0  0  0  0
   -0.8836   -6.5406   15.8331 C   0  0  0  0  0  0  0  0  0  0  0  0
   -0.9199   -5.4788   16.7325 C   0  0  0  0  0  0  0  0  0  0  0  0
   -2.0432   -5.3128   17.5146 C   0  0  0  0  0  0  0  0  0  0  0  0
   -3.1411   -6.1759   17.4306 C   0  0  0  0  0  0  0  0  0  0  0  0
   -3.0902   -7.2223   16.5356 C   0  0  0  0  0  0  0  0  0  0  0  0
   -1.9594   -7.3970   15.7420 C   0  0  0  0  0  0  0  0  0  0  0  0
   -4.2438   -5.9570   18.2445 O   0  0  0  0  0  0  0  0  0  0  0  0
    0.1672   -5.8853   13.7915 C   0  0  0  0  0  0  0  0  0  0  0  0
    1.2229   -5.7877   12.9117 C   0  0  0  0  0  0  0  0  0  0  0  0
    1.1359   -5.0392   11.7430 C   0  0  0  0  0  0  0  0  0  0  0  0
   -0.0319   -4.3689   11.4389 C   0  0  0  0  0  0  0  0  0  0  0  0
   -1.1004   -4.4544   12.3073 C   0  0  0  0  0  0  0  0  0  0  0  0
   -0.9855   -5.2020   13.4557 C   0  0  0  0  0  0  0  0  0  0  0  0
   -0.1406   -3.6092   10.2668 O   0  0  0  0  0  0  0  0  0  0  0  0
    0.6558   -3.8821    9.1460 C   0  0  0  0  0  0  0  0  0  0  0  0
    0.1984   -3.0168    8.0157 C   0  0  0  0  0  0  0  0  0  0  0  0
   -0.5587   -3.4834    6.9832 C   0  0  0  0  0  0  0  0  0  0  0  0
   -0.9367   -2.6104    5.9842 C   0  0  0  0  0  0  0  0  0  0  0  0
   -0.5687   -1.3040    6.0136 C   0  0  0  0  0  0  0  0  0  0  0  0
    0.2044   -0.7904    7.0512 C   0  0  0  0  0  0  0  0  0  0  0  0
    0.5674   -1.6729    8.0308 C   0  0  0  0  0  0  0  0  0  0  0  0
    0.5439    0.6521    7.0635 C   0  0  0  0  0  0  0  0  0  0  0  0
   -0.4392    1.5594    7.1162 O   0  0  0  0  0  0  0  0  0  0  0  0
   -0.4857    2.9023    7.1317 C   0  0  0  0  0  0  0  0  0  0  0  0
   -1.6214    3.6975    7.1509 C   0  0  0  0  0  0  0  0  0  0  0  0
   -1.5738    5.0750    7.1682 C   0  0  0  0  0  0  0  0  0  0  0  0
   -0.3751    5.7411    7.1667 C   0  0  0  0  0  0  0  0  0  0  0  0
    0.7786    4.9926    7.1476 C   0  0  0  0  0  0  0  0  0  0  0  0
    0.7304    3.6322    7.1307 C   0  0  0  0  0  0  0  0  0  0  0  0
   -0.2976    7.2051    7.1838 C   0  0  0  0  0  0  0  0  0  0  0  0
   -1.2775    7.9380    7.5835 N   0  0  0  0  0  0  0  0  0  0  0  0
    0.8977    7.8124    6.7445 N   0  0  0  0  0  0  0  0  0  0  0  0
  1  2  1  0
  2  3  1  0
  2  4  1  0
  4  5  2  0
  5  6  1  0
  6  7  2  0
  7  8  1  0
  8  9  2  0
  7 10  1  0
  2 11  1  0
 11 12  2  0
 12 13  1  0
 13 14  2  0
 14 15  1  0
 15 16  2  0
 14 17  1  0
 17 18  1  0
 18 19  1  0
 19 20  2  0
 20 21  1  0
 21 22  2  0
 22 23  1  0
 23 24  2  0
 23 25  1  0
 25 26  1  0
 26 27  1  0
 27 28  2  0
 28 29  1  0
 29 30  2  0
 30 31  1  0
 31 32  2  0
 30 33  1  0
 33 34  2  0
 33 35  1  0
  9  4  1  0
 16 11  1  0
 24 19  1  0
 32 27  1  0
M  END
$$$$
