
     RDKit          3D

 35 38  0  0  0  0  0  0  0  0999 V2000
   -0.7911    3.0603    8.5650 C   0  0  0  0  0  0  0  0  0  0  0  0
    0.6288    2.9693    9.0642 C   0  0  0  0  0  0  0  0  0  0  0  0
    0.8309    4.0805   10.0715 C   0  0  0  0  0  0  0  0  0  0  0  0
    1.5939    3.1429    7.9672 C   0  0  0  0  0  0  0  0  0  0  0  0
    2.9278    3.3461    8.3093 C   0  0  0  0  0  0  0  0  0  0  0  0
    3.8516    3.5124    7.2992 C   0  0  0  0  0  0  0  0  0  0  0  0
    3.4888    3.4829    5.9484 C   0  0  0  0  0  0  0  0  0  0  0  0
    2.1645    3.2808    5.6257 C   0  0  0  0  0  0  0  0  0  0  0  0
    1.2253    3.1119    6.6397 C   0  0  0  0  0  0  0  0  0  0  0  0
    4.4645    3.6565    4.9768 O   0  0  0  0  0  0  0  0  0  0  0  0
    0.8334    1.6358    9.6559 C   0  0  0  0  0  0  0  0  0  0  0  0
    0.2688    0.5393    9.0419 C   0  0  0  0  0  0  0  0  0  0  0  0
    0.4246   -0.7459    9.5496 C   0  0  0  0  0  0  0  0  0  0  0  0
    1.1616   -0.9484   10.6991 C   0  0  0  0  0  0  0  0  0  0  0  0
    1.7350    0.1371   11.3286 C   0  0  0  0  0  0  0  0  0  0  0  0
    1.5640    1.3965   10.8036 C   0  0  0  0  0  0  0  0  0  0  0  0
    1.3309   -2.2348   11.2275 O   0  0  0  0  0  0  0  0  0  0  0  0
    0.7629   -3.3567   10.6081 C   0  0  0  0  0  0  0  0  0  0  0  0
    0.7369   -4.4813   11.5929 C   0  0  0  0  0  0  0  0  0  0  0  0
    1.5833   -5.5472   11.5250 C   0  0  0  0  0  0  0  0  0  0  0  0
    1.4879   -6.5379   12.4801 C   0  0  0  0  0  0  0  0  0  0  0  0
    0.5708   -6.4680   13.4787 C   0  0  0  0  0  0  0  0  0  0  0  0
   -0.3108   -5.3955   13.5814 C   0  0  0  0  0  0  0  0  0  0  0  0
   -0.1985   -4.4249   12.6247 C   0  0  0  0  0  0  0  0  0  0  0  0
   -1.2645   -5.3406   14.7143 C   0  0  0  0  0  0  0  0  0  0  0  0
   -1.9276   -6.4476   15.0709 O   0  0  0  0  0  0  0  0  0  0  0  0
   -2.8718   -6.7305   15.9843 C   0  0  0  0  0  0  0  0  0  0  0  0
   -3.2015   -5.9806   17.1031 C   0  0  0  0  0  0  0  0  0  0  0  0
   -4.1913   -6.3487   17.9891 C   0  0  0  0  0  0  0  0  0  0  0  0
   -4.9138   -7.4994   17.8040 C   0  0  0  0  0  0  0  0  0  0  0  0
   -4.6207   -8.2755   16.7071 C   0  0  0  0  0  0  0  0  0  0  0  0
   -3.6431   -7.9110   15.8325 C   0  0  0  0  0  0  0  0  0  0  0  0
   -5.9705   -7.9133   18.7323 C   0  0  0  0  0  0  0  0  0  0  0  0
   -6.2840   -7.2159   19.7678 N   0  0  0  0  0  0  0  0  0  0  0  0
   -6.6550   -9.1177   18.4654 N   0  0  0  0  0  0  0  0  0  0  0  0
  1  2  1  0
  2  3  1  0
  2  4  1  0
  4  5  2  0
  5  6  1  0
  6  7  2  0
  7  8  1  0
  8  9  2  0
  7 10  1  0
  2 11  1  0
 11 12  2  0
 12 13  1  0
 13 14  2  0
 14 15  1  0
 15 16  2  0
 14 17  1  0
 17 18  1  0
 18 19  1  0
 19 20  2  0
 20 21  1  0
 21 22  2  0
 22 23  1  0
 23 24  2  0
 23 25  1  0
 25 26  1  0
 26 27  1  0
 27 28  2  0
 28 29  1  0
 29 30  2  0
 30 31  1  0
 31 32  2  0
 30 33  1  0
 33 34  2  0
 33 35  1  0
  9  4  1  0
 16 11  1  0
 24 19  1  0
 32 27  1  0
M  END
$$$$
