
     RDKit          3D

 29 32  0  0  0  0  0  0  0  0999 V2000
    0.1694   -0.9099    9.0896 C   0  0  0  0  0  0  0  0  0  0  0  0
    0.7680   -2.1951    8.9246 N   0  0  0  0  0  0  0  0  0  0  0  0
    1.0689   -2.8701   10.1673 C   0  0  0  0  0  0  0  0  0  0  0  0
    1.0794   -4.3439    9.9212 C   0  0  0  0  0  0  0  0  0  0  0  0
    0.5148   -5.1523   11.0733 C   0  0  0  0  0  0  0  0  0  0  0  0
   -0.8050   -4.6310   11.4764 C   0  0  0  0  0  0  0  0  0  0  0  0
   -0.9425   -3.2658   11.5921 C   0  0  0  0  0  0  0  0  0  0  0  0
    0.2345   -2.4111   11.3104 C   0  0  0  0  0  0  0  0  0  0  0  0
   -2.2454   -3.0324   11.9724 C   0  0  0  0  0  0  0  0  0  0  0  0
   -2.8894   -1.8410   12.2211 C   0  0  0  0  0  0  0  0  0  0  0  0
   -4.2306   -1.8432   12.5989 C   0  0  0  0  0  0  0  0  0  0  0  0
   -4.8551   -3.0598   12.7063 C   0  0  0  0  0  0  0  0  0  0  0  0
   -4.2102   -4.2582   12.4570 C   0  0  0  0  0  0  0  0  0  0  0  0
   -2.8850   -4.2571   12.0836 C   0  0  0  0  0  0  0  0  0  0  0  0
   -1.9720   -5.2221   11.7719 N   0  0  0  0  0  0  0  0  0  0  0  0
   -2.2789   -6.6358   11.7787 C   0  0  0  0  0  0  0  0  0  0  0  0
   -2.2214   -7.1907   13.1485 C   0  0  0  0  0  0  0  0  0  0  0  0
   -1.2426   -7.0321   13.9192 O   0  0  0  0  0  0  0  0  0  0  0  0
   -3.2944   -7.9215   13.6107 O   0  0  0  0  0  0  0  0  0  0  0  0
    2.0359   -2.2259    7.7962 S   0  0  0  0  0  6  0  0  0  0  0  0
    1.4984   -1.6797    6.4822 O   0  0  0  0  0  0  0  0  0  0  0  0
    3.1435   -1.3383    8.2719 O   0  0  0  0  0  0  0  0  0  0  0  0
    2.6261   -3.8594    7.5992 C   0  0  0  0  0  0  0  0  0  0  0  0
    2.0920   -4.7210    6.6698 C   0  0  0  0  0  0  0  0  0  0  0  0
    2.5880   -6.0007    6.5483 C   0  0  0  0  0  0  0  0  0  0  0  0
    3.6158   -6.3953    7.3651 C   0  0  0  0  0  0  0  0  0  0  0  0
    4.1721   -5.5549    8.3060 C   0  0  0  0  0  0  0  0  0  0  0  0
    3.6542   -4.2725    8.4074 C   0  0  0  0  0  0  0  0  0  0  0  0
    4.0831   -7.6668    7.2195 F   0  0  0  0  0  0  0  0  0  0  0  0
  1  2  1  0
  2  3  1  0
  3  4  1  0
  4  5  1  0
  5  6  1  0
  6  7  2  0
  7  8  1  0
  7  9  1  0
  9 10  2  0
 10 11  1  0
 11 12  2  0
 12 13  1  0
 13 14  2  0
 14 15  1  0
 15 16  1  0
 16 17  1  0
 17 18  2  0
 17 19  1  0
  2 20  1  0
 20 21  2  0
 20 22  2  0
 20 23  1  0
 23 24  2  0
 24 25  1  0
 25 26  2  0
 26 27  1  0
 27 28  2  0
 26 29  1  0
  8  3  1  0
 15  6  1  0
 14  9  1  0
 28 23  1  0
M  END
$$$$
