
     RDKit          3D

 29 32  0  0  0  0  0  0  0  0999 V2000
    0.2009   -0.4895   11.1519 C   0  0  0  0  0  0  0  0  0  0  0  0
   -0.2076   -1.6696   11.8433 N   0  0  0  0  0  0  0  0  0  0  0  0
   -0.8264   -2.6652   10.9971 C   0  0  0  0  0  0  0  0  0  0  0  0
   -0.7450   -3.9916   11.6803 C   0  0  0  0  0  0  0  0  0  0  0  0
   -0.5046   -5.1473   10.7283 C   0  0  0  0  0  0  0  0  0  0  0  0
    0.6456   -4.8653    9.8487 C   0  0  0  0  0  0  0  0  0  0  0  0
    0.7238   -3.6117    9.2844 C   0  0  0  0  0  0  0  0  0  0  0  0
   -0.3447   -2.6319    9.5898 C   0  0  0  0  0  0  0  0  0  0  0  0
    1.8687   -3.5955    8.5191 C   0  0  0  0  0  0  0  0  0  0  0  0
    2.4005   -2.5827    7.7527 C   0  0  0  0  0  0  0  0  0  0  0  0
    3.5867   -2.7924    7.0523 C   0  0  0  0  0  0  0  0  0  0  0  0
    4.1776   -4.0252    7.1647 C   0  0  0  0  0  0  0  0  0  0  0  0
    3.6453   -5.0444    7.9341 C   0  0  0  0  0  0  0  0  0  0  0  0
    2.4732   -4.8383    8.6265 C   0  0  0  0  0  0  0  0  0  0  0  0
    1.6964   -5.5980    9.4519 N   0  0  0  0  0  0  0  0  0  0  0  0
    2.0127   -6.9658    9.8013 C   0  0  0  0  0  0  0  0  0  0  0  0
    1.1521   -7.9195    9.0684 C   0  0  0  0  0  0  0  0  0  0  0  0
    0.0521   -8.3377    9.5072 O   0  0  0  0  0  0  0  0  0  0  0  0
    1.5723   -8.3781    7.8388 O   0  0  0  0  0  0  0  0  0  0  0  0
   -1.0503   -1.3672   13.2856 S   0  0  0  0  0  6  0  0  0  0  0  0
   -0.9477   -2.6140   14.1508 O   0  0  0  0  0  0  0  0  0  0  0  0
   -0.4050   -0.2244   14.0057 O   0  0  0  0  0  0  0  0  0  0  0  0
   -2.7199   -0.9838   12.9375 C   0  0  0  0  0  0  0  0  0  0  0  0
   -3.1428    0.3074   12.7246 C   0  0  0  0  0  0  0  0  0  0  0  0
   -4.4689    0.5645   12.4530 C   0  0  0  0  0  0  0  0  0  0  0  0
   -5.3514   -0.4831   12.3996 C   0  0  0  0  0  0  0  0  0  0  0  0
   -4.9580   -1.7880   12.6084 C   0  0  0  0  0  0  0  0  0  0  0  0
   -3.6178   -2.0187   12.8799 C   0  0  0  0  0  0  0  0  0  0  0  0
   -6.6552   -0.1948   12.1289 F   0  0  0  0  0  0  0  0  0  0  0  0
  1  2  1  0
  2  3  1  0
  3  4  1  0
  4  5  1  0
  5  6  1  0
  6  7  2  0
  7  8  1  0
  7  9  1  0
  9 10  2  0
 10 11  1  0
 11 12  2  0
 12 13  1  0
 13 14  2  0
 14 15  1  0
 15 16  1  0
 16 17  1  0
 17 18  2  0
 17 19  1  0
  2 20  1  0
 20 21  2  0
 20 22  2  0
 20 23  1  0
 23 24  2  0
 24 25  1  0
 25 26  2  0
 26 27  1  0
 27 28  2  0
 26 29  1  0
  8  3  1  0
 15  6  1  0
 14  9  1  0
 28 23  1  0
M  END
$$$$
