
     RDKit          3D

 29 32  0  0  0  0  0  0  0  0999 V2000
   -2.7042    4.5196   11.2407 C   0  0  0  0  0  0  0  0  0  0  0  0
   -1.5005    4.2449   11.9572 N   0  0  0  0  0  0  0  0  0  0  0  0
   -1.6842    3.4065   13.1206 C   0  0  0  0  0  0  0  0  0  0  0  0
   -0.6228    2.3548   13.1252 C   0  0  0  0  0  0  0  0  0  0  0  0
   -1.1069    1.0107   13.6335 C   0  0  0  0  0  0  0  0  0  0  0  0
   -2.3386    0.6025   12.9315 C   0  0  0  0  0  0  0  0  0  0  0  0
   -3.3185    1.5543   12.7588 C   0  0  0  0  0  0  0  0  0  0  0  0
   -3.0796    2.9178   13.2869 C   0  0  0  0  0  0  0  0  0  0  0  0
   -4.3505    0.9387   12.0859 C   0  0  0  0  0  0  0  0  0  0  0  0
   -5.5598    1.4505   11.6716 C   0  0  0  0  0  0  0  0  0  0  0  0
   -6.4646    0.6329   10.9974 C   0  0  0  0  0  0  0  0  0  0  0  0
   -6.0960   -0.6697   10.7759 C   0  0  0  0  0  0  0  0  0  0  0  0
   -4.8816   -1.1862   11.1912 C   0  0  0  0  0  0  0  0  0  0  0  0
   -3.9868   -0.3792   11.8574 C   0  0  0  0  0  0  0  0  0  0  0  0
   -2.7429   -0.5557   12.3898 N   0  0  0  0  0  0  0  0  0  0  0  0
   -2.0317   -1.8146   12.3429 C   0  0  0  0  0  0  0  0  0  0  0  0
   -1.9940   -2.4594   13.6734 C   0  0  0  0  0  0  0  0  0  0  0  0
   -2.9831   -3.0327   14.1932 O   0  0  0  0  0  0  0  0  0  0  0  0
   -0.8151   -2.4340   14.3864 O   0  0  0  0  0  0  0  0  0  0  0  0
   -0.5365    5.6141   12.2366 S   0  0  0  0  0  6  0  0  0  0  0  0
    0.9185    5.1868   12.1178 O   0  0  0  0  0  0  0  0  0  0  0  0
   -0.8250    6.6446   11.1898 O   0  0  0  0  0  0  0  0  0  0  0  0
   -0.8679    6.2692   13.8230 C   0  0  0  0  0  0  0  0  0  0  0  0
   -1.9093    7.1381   14.0505 C   0  0  0  0  0  0  0  0  0  0  0  0
   -2.1345    7.6306   15.3174 C   0  0  0  0  0  0  0  0  0  0  0  0
   -1.3070    7.2409   16.3385 C   0  0  0  0  0  0  0  0  0  0  0  0
   -0.2550    6.3715   16.1421 C   0  0  0  0  0  0  0  0  0  0  0  0
   -0.0508    5.8910   14.8574 C   0  0  0  0  0  0  0  0  0  0  0  0
   -1.5569    7.7460   17.5790 F   0  0  0  0  0  0  0  0  0  0  0  0
  1  2  1  0
  2  3  1  0
  3  4  1  0
  4  5  1  0
  5  6  1  0
  6  7  2  0
  7  8  1  0
  7  9  1  0
  9 10  2  0
 10 11  1  0
 11 12  2  0
 12 13  1  0
 13 14  2  0
 14 15  1  0
 15 16  1  0
 16 17  1  0
 17 18  2  0
 17 19  1  0
  2 20  1  0
 20 21  2  0
 20 22  2  0
 20 23  1  0
 23 24  2  0
 24 25  1  0
 25 26  2  0
 26 27  1  0
 27 28  2  0
 26 29  1  0
  8  3  1  0
 15  6  1  0
 14  9  1  0
 28 23  1  0
M  END
$$$$
