
     RDKit          3D

 29 32  0  0  0  0  0  0  0  0999 V2000
    0.1230   -0.0982   11.3557 C   0  0  0  0  0  0  0  0  0  0  0  0
   -0.7513   -1.0882   11.8968 N   0  0  0  0  0  0  0  0  0  0  0  0
   -1.3395   -1.9616   10.9061 C   0  0  0  0  0  0  0  0  0  0  0  0
   -1.5073   -3.3203   11.5048 C   0  0  0  0  0  0  0  0  0  0  0  0
   -1.2527   -4.4480   10.5235 C   0  0  0  0  0  0  0  0  0  0  0  0
    0.0413   -4.2602    9.8403 C   0  0  0  0  0  0  0  0  0  0  0  0
    0.3400   -2.9983    9.3773 C   0  0  0  0  0  0  0  0  0  0  0  0
   -0.6495   -1.9160    9.5887 C   0  0  0  0  0  0  0  0  0  0  0  0
    1.5824   -3.0791    8.7887 C   0  0  0  0  0  0  0  0  0  0  0  0
    2.3311   -2.0993    8.1760 C   0  0  0  0  0  0  0  0  0  0  0  0
    3.5798   -2.4122    7.6425 C   0  0  0  0  0  0  0  0  0  0  0  0
    4.0091   -3.7099    7.7577 C   0  0  0  0  0  0  0  0  0  0  0  0
    3.2588   -4.6961    8.3729 C   0  0  0  0  0  0  0  0  0  0  0  0
    2.0248   -4.3880    8.9003 C   0  0  0  0  0  0  0  0  0  0  0  0
    1.0540   -5.0909    9.5524 N   0  0  0  0  0  0  0  0  0  0  0  0
    1.1630   -6.5018    9.8529 C   0  0  0  0  0  0  0  0  0  0  0  0
    0.7366   -7.3296    8.7039 C   0  0  0  0  0  0  0  0  0  0  0  0
    1.4499   -7.5249    7.6887 O   0  0  0  0  0  0  0  0  0  0  0  0
   -0.5074   -7.9212    8.7415 O   0  0  0  0  0  0  0  0  0  0  0  0
   -1.8601   -0.4834   13.0312 S   0  0  0  0  0  6  0  0  0  0  0  0
   -1.9392   -1.4806   14.1771 O   0  0  0  0  0  0  0  0  0  0  0  0
   -1.3615    0.8246   13.5619 O   0  0  0  0  0  0  0  0  0  0  0  0
   -3.4252   -0.2641   12.2844 C   0  0  0  0  0  0  0  0  0  0  0  0
   -4.3588   -1.2729   12.2369 C   0  0  0  0  0  0  0  0  0  0  0  0
   -5.5805   -1.0564   11.6381 C   0  0  0  0  0  0  0  0  0  0  0  0
   -5.8455    0.1740   11.0949 C   0  0  0  0  0  0  0  0  0  0  0  0
   -4.9305    1.2050   11.1267 C   0  0  0  0  0  0  0  0  0  0  0  0
   -3.7088    0.9602   11.7354 C   0  0  0  0  0  0  0  0  0  0  0  0
   -7.0628    0.3553   10.5103 F   0  0  0  0  0  0  0  0  0  0  0  0
  1  2  1  0
  2  3  1  0
  3  4  1  0
  4  5  1  0
  5  6  1  0
  6  7  2  0
  7  8  1  0
  7  9  1  0
  9 10  2  0
 10 11  1  0
 11 12  2  0
 12 13  1  0
 13 14  2  0
 14 15  1  0
 15 16  1  0
 16 17  1  0
 17 18  2  0
 17 19  1  0
  2 20  1  0
 20 21  2  0
 20 22  2  0
 20 23  1  0
 23 24  2  0
 24 25  1  0
 25 26  2  0
 26 27  1  0
 27 28  2  0
 26 29  1  0
  8  3  1  0
 15  6  1  0
 14  9  1  0
 28 23  1  0
M  END
$$$$
