
     RDKit          3D

 29 32  0  0  0  0  0  0  0  0999 V2000
   -0.3954    0.1887   11.2616 C   0  0  0  0  0  0  0  0  0  0  0  0
   -1.1349   -0.8678   11.8734 N   0  0  0  0  0  0  0  0  0  0  0  0
   -1.6294   -1.8581   10.9432 C   0  0  0  0  0  0  0  0  0  0  0  0
   -1.7273   -3.1713   11.6492 C   0  0  0  0  0  0  0  0  0  0  0  0
   -1.3648   -4.3556   10.7743 C   0  0  0  0  0  0  0  0  0  0  0  0
   -0.0633   -4.1358   10.1154 C   0  0  0  0  0  0  0  0  0  0  0  0
    0.1669   -2.8987    9.5564 C   0  0  0  0  0  0  0  0  0  0  0  0
   -0.8988   -1.8734    9.6472 C   0  0  0  0  0  0  0  0  0  0  0  0
    1.4315   -2.9416    9.0129 C   0  0  0  0  0  0  0  0  0  0  0  0
    2.1344   -1.9662    8.3417 C   0  0  0  0  0  0  0  0  0  0  0  0
    3.4187   -2.2351    7.8728 C   0  0  0  0  0  0  0  0  0  0  0  0
    3.9289   -3.4863    8.1093 C   0  0  0  0  0  0  0  0  0  0  0  0
    3.2248   -4.4680    8.7835 C   0  0  0  0  0  0  0  0  0  0  0  0
    1.9557   -4.2034    9.2471 C   0  0  0  0  0  0  0  0  0  0  0  0
    1.0116   -4.9155    9.9279 N   0  0  0  0  0  0  0  0  0  0  0  0
    1.2034   -6.2861   10.3493 C   0  0  0  0  0  0  0  0  0  0  0  0
    0.6847   -7.2352    9.3405 C   0  0  0  0  0  0  0  0  0  0  0  0
    0.0970   -8.3055    9.6347 O   0  0  0  0  0  0  0  0  0  0  0  0
    0.8511   -6.9366    8.0056 O   0  0  0  0  0  0  0  0  0  0  0  0
   -2.2901   -0.3391   12.9995 S   0  0  0  0  0  6  0  0  0  0  0  0
   -3.5882   -1.0775   12.7112 O   0  0  0  0  0  0  0  0  0  0  0  0
   -1.8311   -0.6890   14.3808 O   0  0  0  0  0  0  0  0  0  0  0  0
   -2.5117    1.3898   12.8669 C   0  0  0  0  0  0  0  0  0  0  0  0
   -3.7477    1.9789   12.9966 C   0  0  0  0  0  0  0  0  0  0  0  0
   -3.8768    3.3461   12.8848 C   0  0  0  0  0  0  0  0  0  0  0  0
   -2.7587    4.1016   12.6438 C   0  0  0  0  0  0  0  0  0  0  0  0
   -1.5064    3.5405   12.5089 C   0  0  0  0  0  0  0  0  0  0  0  0
   -1.4046    2.1624   12.6259 C   0  0  0  0  0  0  0  0  0  0  0  0
   -2.9207    5.4503   12.5387 F   0  0  0  0  0  0  0  0  0  0  0  0
  1  2  1  0
  2  3  1  0
  3  4  1  0
  4  5  1  0
  5  6  1  0
  6  7  2  0
  7  8  1  0
  7  9  1  0
  9 10  2  0
 10 11  1  0
 11 12  2  0
 12 13  1  0
 13 14  2  0
 14 15  1  0
 15 16  1  0
 16 17  1  0
 17 18  2  0
 17 19  1  0
  2 20  1  0
 20 21  2  0
 20 22  2  0
 20 23  1  0
 23 24  2  0
 24 25  1  0
 25 26  2  0
 26 27  1  0
 27 28  2  0
 26 29  1  0
  8  3  1  0
 15  6  1  0
 14  9  1  0
 28 23  1  0
M  END
$$$$
