
     RDKit          3D

 29 32  0  0  0  0  0  0  0  0999 V2000
    0.7810   -0.2698   11.9015 C   0  0  0  0  0  0  0  0  0  0  0  0
   -0.4021   -0.8841   12.4119 N   0  0  0  0  0  0  0  0  0  0  0  0
   -1.1022   -1.7065   11.4506 C   0  0  0  0  0  0  0  0  0  0  0  0
   -1.3572   -3.0458   12.0621 C   0  0  0  0  0  0  0  0  0  0  0  0
   -1.2389   -4.1919   11.0762 C   0  0  0  0  0  0  0  0  0  0  0  0
    0.0363   -4.1134   10.3387 C   0  0  0  0  0  0  0  0  0  0  0  0
    0.4193   -2.8813    9.8577 C   0  0  0  0  0  0  0  0  0  0  0  0
   -0.4668   -1.7200   10.1054 C   0  0  0  0  0  0  0  0  0  0  0  0
    1.6248   -3.0661    9.2181 C   0  0  0  0  0  0  0  0  0  0  0  0
    2.4261   -2.1528    8.5701 C   0  0  0  0  0  0  0  0  0  0  0  0
    3.6208   -2.5693    7.9863 C   0  0  0  0  0  0  0  0  0  0  0  0
    3.9451   -3.8983    8.0894 C   0  0  0  0  0  0  0  0  0  0  0  0
    3.1417   -4.8177    8.7399 C   0  0  0  0  0  0  0  0  0  0  0  0
    1.9610   -4.4072    9.3171 C   0  0  0  0  0  0  0  0  0  0  0  0
    0.9633   -5.0259   10.0124 N   0  0  0  0  0  0  0  0  0  0  0  0
    0.9670   -6.4407   10.3146 C   0  0  0  0  0  0  0  0  0  0  0  0
    0.2196   -7.2090    9.2955 C   0  0  0  0  0  0  0  0  0  0  0  0
    0.5221   -7.2190    8.0766 O   0  0  0  0  0  0  0  0  0  0  0  0
   -0.8670   -7.9555    9.6966 O   0  0  0  0  0  0  0  0  0  0  0  0
   -1.4077    0.1720   13.2811 S   0  0  0  0  0  6  0  0  0  0  0  0
   -2.1580   -0.6518   14.3165 O   0  0  0  0  0  0  0  0  0  0  0  0
   -0.5654    1.1873   13.9887 O   0  0  0  0  0  0  0  0  0  0  0  0
   -2.5189    0.9738   12.1957 C   0  0  0  0  0  0  0  0  0  0  0  0
   -3.7259    0.4160   11.8443 C   0  0  0  0  0  0  0  0  0  0  0  0
   -4.5716    1.0831   10.9852 C   0  0  0  0  0  0  0  0  0  0  0  0
   -4.1899    2.3037   10.4916 C   0  0  0  0  0  0  0  0  0  0  0  0
   -2.9867    2.8887   10.8251 C   0  0  0  0  0  0  0  0  0  0  0  0
   -2.1545    2.1959   11.6914 C   0  0  0  0  0  0  0  0  0  0  0  0
   -5.0490    2.9370    9.6447 F   0  0  0  0  0  0  0  0  0  0  0  0
  1  2  1  0
  2  3  1  0
  3  4  1  0
  4  5  1  0
  5  6  1  0
  6  7  2  0
  7  8  1  0
  7  9  1  0
  9 10  2  0
 10 11  1  0
 11 12  2  0
 12 13  1  0
 13 14  2  0
 14 15  1  0
 15 16  1  0
 16 17  1  0
 17 18  2  0
 17 19  1  0
  2 20  1  0
 20 21  2  0
 20 22  2  0
 20 23  1  0
 23 24  2  0
 24 25  1  0
 25 26  2  0
 26 27  1  0
 27 28  2  0
 26 29  1  0
  8  3  1  0
 15  6  1  0
 14  9  1  0
 28 23  1  0
M  END
$$$$
