
     RDKit          3D

 29 32  0  0  0  0  0  0  0  0999 V2000
   -0.7367   -4.9554   11.2838 C   0  0  0  0  0  0  0  0  0  0  0  0
    0.5431   -4.5778   10.7769 N   0  0  0  0  0  0  0  0  0  0  0  0
    0.5922   -3.2377   10.2365 C   0  0  0  0  0  0  0  0  0  0  0  0
    1.4722   -2.4020   11.1082 C   0  0  0  0  0  0  0  0  0  0  0  0
    0.9877   -0.9734   11.2625 C   0  0  0  0  0  0  0  0  0  0  0  0
   -0.4328   -0.9465   11.6597 C   0  0  0  0  0  0  0  0  0  0  0  0
   -1.2952   -1.7924   10.9989 C   0  0  0  0  0  0  0  0  0  0  0  0
   -0.7491   -2.6684    9.9361 C   0  0  0  0  0  0  0  0  0  0  0  0
   -2.5434   -1.5850   11.5426 C   0  0  0  0  0  0  0  0  0  0  0  0
   -3.7469   -2.1791   11.2350 C   0  0  0  0  0  0  0  0  0  0  0  0
   -4.8997   -1.8086   11.9246 C   0  0  0  0  0  0  0  0  0  0  0  0
   -4.7738   -0.8491   12.8968 C   0  0  0  0  0  0  0  0  0  0  0  0
   -3.5658   -0.2507   13.2077 C   0  0  0  0  0  0  0  0  0  0  0  0
   -2.4261   -0.6161   12.5270 C   0  0  0  0  0  0  0  0  0  0  0  0
   -1.1146   -0.2426   12.5752 N   0  0  0  0  0  0  0  0  0  0  0  0
   -0.6081    0.7572   13.4900 C   0  0  0  0  0  0  0  0  0  0  0  0
   -0.4504    0.2061   14.8534 C   0  0  0  0  0  0  0  0  0  0  0  0
    0.1424   -0.8734   15.0995 O   0  0  0  0  0  0  0  0  0  0  0  0
   -0.9788    0.9083   15.9149 O   0  0  0  0  0  0  0  0  0  0  0  0
    1.2653   -5.7506    9.7844 S   0  0  0  0  0  6  0  0  0  0  0  0
    2.2366   -6.5472   10.6420 O   0  0  0  0  0  0  0  0  0  0  0  0
    0.2100   -6.6755    9.2628 O   0  0  0  0  0  0  0  0  0  0  0  0
    2.0941   -4.9822    8.4509 C   0  0  0  0  0  0  0  0  0  0  0  0
    3.1059   -4.0718    8.6480 C   0  0  0  0  0  0  0  0  0  0  0  0
    3.7323   -3.4899    7.5676 C   0  0  0  0  0  0  0  0  0  0  0  0
    3.3309   -3.8332    6.3026 C   0  0  0  0  0  0  0  0  0  0  0  0
    2.3200   -4.7423    6.0727 C   0  0  0  0  0  0  0  0  0  0  0  0
    1.7064   -5.3130    7.1777 C   0  0  0  0  0  0  0  0  0  0  0  0
    3.9706   -3.2398    5.2562 F   0  0  0  0  0  0  0  0  0  0  0  0
  1  2  1  0
  2  3  1  0
  3  4  1  0
  4  5  1  0
  5  6  1  0
  6  7  2  0
  7  8  1  0
  7  9  1  0
  9 10  2  0
 10 11  1  0
 11 12  2  0
 12 13  1  0
 13 14  2  0
 14 15  1  0
 15 16  1  0
 16 17  1  0
 17 18  2  0
 17 19  1  0
  2 20  1  0
 20 21  2  0
 20 22  2  0
 20 23  1  0
 23 24  2  0
 24 25  1  0
 25 26  2  0
 26 27  1  0
 27 28  2  0
 26 29  1  0
  8  3  1  0
 15  6  1  0
 14  9  1  0
 28 23  1  0
M  END
$$$$
