
     RDKit          3D

 29 32  0  0  0  0  0  0  0  0999 V2000
    1.0910   -0.9173   11.7075 C   0  0  0  0  0  0  0  0  0  0  0  0
   -0.2899   -1.1980   11.9349 N   0  0  0  0  0  0  0  0  0  0  0  0
   -0.9078   -1.9980   10.9011 C   0  0  0  0  0  0  0  0  0  0  0  0
   -1.2950   -3.3180   11.4846 C   0  0  0  0  0  0  0  0  0  0  0  0
   -1.1132   -4.4786   10.5257 C   0  0  0  0  0  0  0  0  0  0  0  0
    0.2430   -4.4654    9.9451 C   0  0  0  0  0  0  0  0  0  0  0  0
    0.7367   -3.2569    9.5070 C   0  0  0  0  0  0  0  0  0  0  0  0
   -0.1183   -2.0543    9.6413 C   0  0  0  0  0  0  0  0  0  0  0  0
    1.9999   -3.5025    9.0166 C   0  0  0  0  0  0  0  0  0  0  0  0
    2.9137   -2.6331    8.4642 C   0  0  0  0  0  0  0  0  0  0  0  0
    4.1489   -3.1092    8.0292 C   0  0  0  0  0  0  0  0  0  0  0  0
    4.3972   -4.4502    8.1769 C   0  0  0  0  0  0  0  0  0  0  0  0
    3.4807   -5.3256    8.7317 C   0  0  0  0  0  0  0  0  0  0  0  0
    2.2599   -4.8563    9.1618 C   0  0  0  0  0  0  0  0  0  0  0  0
    1.1592   -5.4221    9.7364 N   0  0  0  0  0  0  0  0  0  0  0  0
    1.0619   -6.8324   10.0440 C   0  0  0  0  0  0  0  0  0  0  0  0
    0.7928   -7.6295    8.8276 C   0  0  0  0  0  0  0  0  0  0  0  0
    1.5678   -8.5193    8.3976 O   0  0  0  0  0  0  0  0  0  0  0  0
   -0.3672   -7.3892    8.1237 O   0  0  0  0  0  0  0  0  0  0  0  0
   -1.2019    0.1566   12.3989 S   0  0  0  0  0  6  0  0  0  0  0  0
   -0.7816    0.5350   13.8109 O   0  0  0  0  0  0  0  0  0  0  0  0
   -0.8947    1.2983   11.4806 O   0  0  0  0  0  0  0  0  0  0  0  0
   -2.9084   -0.2162   12.3335 C   0  0  0  0  0  0  0  0  0  0  0  0
   -3.7078    0.2040   11.2962 C   0  0  0  0  0  0  0  0  0  0  0  0
   -5.0486   -0.1126   11.2848 C   0  0  0  0  0  0  0  0  0  0  0  0
   -5.5664   -0.8486   12.3190 C   0  0  0  0  0  0  0  0  0  0  0  0
   -4.7909   -1.2843   13.3726 C   0  0  0  0  0  0  0  0  0  0  0  0
   -3.4447   -0.9517   13.3592 C   0  0  0  0  0  0  0  0  0  0  0  0
   -6.8957   -1.1446   12.2774 F   0  0  0  0  0  0  0  0  0  0  0  0
  1  2  1  0
  2  3  1  0
  3  4  1  0
  4  5  1  0
  5  6  1  0
  6  7  2  0
  7  8  1  0
  7  9  1  0
  9 10  2  0
 10 11  1  0
 11 12  2  0
 12 13  1  0
 13 14  2  0
 14 15  1  0
 15 16  1  0
 16 17  1  0
 17 18  2  0
 17 19  1  0
  2 20  1  0
 20 21  2  0
 20 22  2  0
 20 23  1  0
 23 24  2  0
 24 25  1  0
 25 26  2  0
 26 27  1  0
 27 28  2  0
 26 29  1  0
  8  3  1  0
 15  6  1  0
 14  9  1  0
 28 23  1  0
M  END
$$$$
