
     RDKit          3D

 29 32  0  0  0  0  0  0  0  0999 V2000
   -5.8350   19.8438   -8.8147 C   0  0  0  0  0  0  0  0  0  0  0  0
   -5.3056   18.7785   -9.6035 N   0  0  0  0  0  0  0  0  0  0  0  0
   -3.9157   18.4816   -9.3381 C   0  0  0  0  0  0  0  0  0  0  0  0
   -3.8447   17.4253   -8.2837 C   0  0  0  0  0  0  0  0  0  0  0  0
   -2.6887   17.6110   -7.3200 C   0  0  0  0  0  0  0  0  0  0  0  0
   -2.6770   18.9841   -6.7809 C   0  0  0  0  0  0  0  0  0  0  0  0
   -2.8759   20.0184   -7.6678 C   0  0  0  0  0  0  0  0  0  0  0  0
   -3.0846   19.6921   -9.0979 C   0  0  0  0  0  0  0  0  0  0  0  0
   -2.8232   21.1822   -6.9333 C   0  0  0  0  0  0  0  0  0  0  0  0
   -2.9612   22.4891   -7.3443 C   0  0  0  0  0  0  0  0  0  0  0  0
   -2.8699   23.5222   -6.4138 C   0  0  0  0  0  0  0  0  0  0  0  0
   -2.6418   23.1767   -5.1060 C   0  0  0  0  0  0  0  0  0  0  0  0
   -2.5027   21.8644   -4.6906 C   0  0  0  0  0  0  0  0  0  0  0  0
   -2.5928   20.8428   -5.6092 C   0  0  0  0  0  0  0  0  0  0  0  0
   -2.5075   19.4824   -5.5474 N   0  0  0  0  0  0  0  0  0  0  0  0
   -2.2709   18.7579   -4.3178 C   0  0  0  0  0  0  0  0  0  0  0  0
   -0.8236   18.6207   -4.0459 C   0  0  0  0  0  0  0  0  0  0  0  0
    0.0651   18.8177   -4.9112 O   0  0  0  0  0  0  0  0  0  0  0  0
   -0.4210   18.2581   -2.7789 O   0  0  0  0  0  0  0  0  0  0  0  0
   -5.6865   18.8874  -11.2543 S   0  0  0  0  0  6  0  0  0  0  0  0
   -7.1091   18.3801  -11.4347 O   0  0  0  0  0  0  0  0  0  0  0  0
   -5.6260   20.3205  -11.6827 O   0  0  0  0  0  0  0  0  0  0  0  0
   -4.5603   17.9377  -12.1952 C   0  0  0  0  0  0  0  0  0  0  0  0
   -3.5219   18.5136  -12.8891 C   0  0  0  0  0  0  0  0  0  0  0  0
   -2.6574   17.7268  -13.6184 C   0  0  0  0  0  0  0  0  0  0  0  0
   -2.8506   16.3698  -13.6387 C   0  0  0  0  0  0  0  0  0  0  0  0
   -3.8819   15.7630  -12.9536 C   0  0  0  0  0  0  0  0  0  0  0  0
   -4.7374   16.5781  -12.2277 C   0  0  0  0  0  0  0  0  0  0  0  0
   -1.9781   15.6205  -14.3692 F   0  0  0  0  0  0  0  0  0  0  0  0
  1  2  1  0
  2  3  1  0
  3  4  1  0
  4  5  1  0
  5  6  1  0
  6  7  2  0
  7  8  1  0
  7  9  1  0
  9 10  2  0
 10 11  1  0
 11 12  2  0
 12 13  1  0
 13 14  2  0
 14 15  1  0
 15 16  1  0
 16 17  1  0
 17 18  2  0
 17 19  1  0
  2 20  1  0
 20 21  2  0
 20 22  2  0
 20 23  1  0
 23 24  2  0
 24 25  1  0
 25 26  2  0
 26 27  1  0
 27 28  2  0
 26 29  1  0
  8  3  1  0
 15  6  1  0
 14  9  1  0
 28 23  1  0
M  END
$$$$
