
     RDKit          3D

 29 32  0  0  0  0  0  0  0  0999 V2000
   -0.1395    0.5104   11.0528 C   0  0  0  0  0  0  0  0  0  0  0  0
   -0.9436   -0.4317   11.7622 N   0  0  0  0  0  0  0  0  0  0  0  0
   -1.5339   -1.4524   10.9254 C   0  0  0  0  0  0  0  0  0  0  0  0
   -1.7054   -2.6958   11.7360 C   0  0  0  0  0  0  0  0  0  0  0  0
   -1.4535   -3.9682   10.9504 C   0  0  0  0  0  0  0  0  0  0  0  0
   -0.1589   -3.8968   10.2467 C   0  0  0  0  0  0  0  0  0  0  0  0
    0.1432   -2.7272    9.5857 C   0  0  0  0  0  0  0  0  0  0  0  0
   -0.8434   -1.6224    9.6185 C   0  0  0  0  0  0  0  0  0  0  0  0
    1.3856   -2.9054    9.0188 C   0  0  0  0  0  0  0  0  0  0  0  0
    2.1371   -2.0396    8.2561 C   0  0  0  0  0  0  0  0  0  0  0  0
    3.3850   -2.4380    7.7812 C   0  0  0  0  0  0  0  0  0  0  0  0
    3.8109   -3.7010    8.1052 C   0  0  0  0  0  0  0  0  0  0  0  0
    3.0578   -4.5727    8.8713 C   0  0  0  0  0  0  0  0  0  0  0  0
    1.8246   -4.1801    9.3411 C   0  0  0  0  0  0  0  0  0  0  0  0
    0.8517   -4.7657   10.0977 N   0  0  0  0  0  0  0  0  0  0  0  0
    0.9569   -6.1097   10.6227 C   0  0  0  0  0  0  0  0  0  0  0  0
    0.7002   -7.1179    9.5715 C   0  0  0  0  0  0  0  0  0  0  0  0
   -0.4220   -7.2865    9.0332 O   0  0  0  0  0  0  0  0  0  0  0  0
    1.7419   -7.9183    9.1555 O   0  0  0  0  0  0  0  0  0  0  0  0
   -2.0285    0.2756   12.8598 S   0  0  0  0  0  6  0  0  0  0  0  0
   -2.2581   -0.7184   13.9880 O   0  0  0  0  0  0  0  0  0  0  0  0
   -1.4181    1.5190   13.4274 O   0  0  0  0  0  0  0  0  0  0  0  0
   -3.5304    0.6649   12.0545 C   0  0  0  0  0  0  0  0  0  0  0  0
   -3.7162    1.8565   11.3934 C   0  0  0  0  0  0  0  0  0  0  0  0
   -4.9168    2.1222   10.7720 C   0  0  0  0  0  0  0  0  0  0  0  0
   -5.9144    1.1836   10.8249 C   0  0  0  0  0  0  0  0  0  0  0  0
   -5.7586   -0.0199   11.4796 C   0  0  0  0  0  0  0  0  0  0  0  0
   -4.5404   -0.2618   12.0965 C   0  0  0  0  0  0  0  0  0  0  0  0
   -7.0891    1.4774   10.2003 F   0  0  0  0  0  0  0  0  0  0  0  0
  1  2  1  0
  2  3  1  0
  3  4  1  0
  4  5  1  0
  5  6  1  0
  6  7  2  0
  7  8  1  0
  7  9  1  0
  9 10  2  0
 10 11  1  0
 11 12  2  0
 12 13  1  0
 13 14  2  0
 14 15  1  0
 15 16  1  0
 16 17  1  0
 17 18  2  0
 17 19  1  0
  2 20  1  0
 20 21  2  0
 20 22  2  0
 20 23  1  0
 23 24  2  0
 24 25  1  0
 25 26  2  0
 26 27  1  0
 27 28  2  0
 26 29  1  0
  8  3  1  0
 15  6  1  0
 14  9  1  0
 28 23  1  0
M  END
$$$$
