
     RDKit          3D

 29 32  0  0  0  0  0  0  0  0999 V2000
   -0.5644   -1.0131   10.4869 C   0  0  0  0  0  0  0  0  0  0  0  0
    0.6580   -1.7327   10.3276 N   0  0  0  0  0  0  0  0  0  0  0  0
    0.9882   -2.5900   11.4440 C   0  0  0  0  0  0  0  0  0  0  0  0
    1.7438   -3.7730   10.9320 C   0  0  0  0  0  0  0  0  0  0  0  0
    1.4125   -5.0618   11.6592 C   0  0  0  0  0  0  0  0  0  0  0  0
   -0.0471   -5.2703   11.7084 C   0  0  0  0  0  0  0  0  0  0  0  0
   -0.8343   -4.1896   12.0375 C   0  0  0  0  0  0  0  0  0  0  0  0
   -0.1728   -2.8950   12.3231 C   0  0  0  0  0  0  0  0  0  0  0  0
   -2.1385   -4.6314   12.0149 C   0  0  0  0  0  0  0  0  0  0  0  0
   -3.3046   -3.9449   12.2698 C   0  0  0  0  0  0  0  0  0  0  0  0
   -4.5297   -4.6035   12.1866 C   0  0  0  0  0  0  0  0  0  0  0  0
   -4.5110   -5.9325   11.8472 C   0  0  0  0  0  0  0  0  0  0  0  0
   -3.3408   -6.6245   11.5907 C   0  0  0  0  0  0  0  0  0  0  0  0
   -2.1298   -5.9746   11.6726 C   0  0  0  0  0  0  0  0  0  0  0  0
   -0.8275   -6.3389   11.4903 N   0  0  0  0  0  0  0  0  0  0  0  0
   -0.4231   -7.6782   11.1219 C   0  0  0  0  0  0  0  0  0  0  0  0
   -0.1265   -7.7704    9.6759 C   0  0  0  0  0  0  0  0  0  0  0  0
   -0.9309   -7.4130    8.7800 O   0  0  0  0  0  0  0  0  0  0  0  0
    1.0945   -8.2739    9.2828 O   0  0  0  0  0  0  0  0  0  0  0  0
    1.9526   -0.7806    9.7802 S   0  0  0  0  0  6  0  0  0  0  0  0
    1.3694    0.3886    9.0014 O   0  0  0  0  0  0  0  0  0  0  0  0
    2.7082   -0.2484   10.9579 O   0  0  0  0  0  0  0  0  0  0  0  0
    3.0165   -1.7341    8.7729 C   0  0  0  0  0  0  0  0  0  0  0  0
    2.5363   -2.6562    7.8726 C   0  0  0  0  0  0  0  0  0  0  0  0
    3.4111   -3.3865    7.0982 C   0  0  0  0  0  0  0  0  0  0  0  0
    4.7584   -3.1778    7.2413 C   0  0  0  0  0  0  0  0  0  0  0  0
    5.2703   -2.2609    8.1348 C   0  0  0  0  0  0  0  0  0  0  0  0
    4.3678   -1.5394    8.9017 C   0  0  0  0  0  0  0  0  0  0  0  0
    5.5962   -3.9161    6.4606 F   0  0  0  0  0  0  0  0  0  0  0  0
  1  2  1  0
  2  3  1  0
  3  4  1  0
  4  5  1  0
  5  6  1  0
  6  7  2  0
  7  8  1  0
  7  9  1  0
  9 10  2  0
 10 11  1  0
 11 12  2  0
 12 13  1  0
 13 14  2  0
 14 15  1  0
 15 16  1  0
 16 17  1  0
 17 18  2  0
 17 19  1  0
  2 20  1  0
 20 21  2  0
 20 22  2  0
 20 23  1  0
 23 24  2  0
 24 25  1  0
 25 26  2  0
 26 27  1  0
 27 28  2  0
 26 29  1  0
  8  3  1  0
 15  6  1  0
 14  9  1  0
 28 23  1  0
M  END
$$$$
