
     RDKit          3D

 29 32  0  0  0  0  0  0  0  0999 V2000
   -0.9657   -5.3551    9.2772 C   0  0  0  0  0  0  0  0  0  0  0  0
    0.2978   -5.5948    9.8964 N   0  0  0  0  0  0  0  0  0  0  0  0
    0.7910   -4.4849   10.6808 C   0  0  0  0  0  0  0  0  0  0  0  0
    0.5633   -4.7824   12.1273 C   0  0  0  0  0  0  0  0  0  0  0  0
    0.1836   -3.5612   12.9422 C   0  0  0  0  0  0  0  0  0  0  0  0
   -0.9339   -2.8385   12.3056 C   0  0  0  0  0  0  0  0  0  0  0  0
   -0.8721   -2.6417   10.9442 C   0  0  0  0  0  0  0  0  0  0  0  0
    0.3045   -3.1606   10.2084 C   0  0  0  0  0  0  0  0  0  0  0  0
   -2.0139   -1.9562   10.5936 C   0  0  0  0  0  0  0  0  0  0  0  0
   -2.4321   -1.5174    9.3572 C   0  0  0  0  0  0  0  0  0  0  0  0
   -3.6403   -0.8341    9.2357 C   0  0  0  0  0  0  0  0  0  0  0  0
   -4.3681   -0.6288   10.3802 C   0  0  0  0  0  0  0  0  0  0  0  0
   -3.9502   -1.0686   11.6236 C   0  0  0  0  0  0  0  0  0  0  0  0
   -2.7564   -1.7438   11.7447 C   0  0  0  0  0  0  0  0  0  0  0  0
   -2.0653   -2.2986   12.7821 N   0  0  0  0  0  0  0  0  0  0  0  0
   -2.5338   -2.2733   14.1506 C   0  0  0  0  0  0  0  0  0  0  0  0
   -1.9662   -1.1257   14.8910 C   0  0  0  0  0  0  0  0  0  0  0  0
   -2.6666   -0.2195   15.4063 O   0  0  0  0  0  0  0  0  0  0  0  0
   -0.5976   -1.0391   15.0268 O   0  0  0  0  0  0  0  0  0  0  0  0
    1.4558   -6.2774    8.8595 S   0  0  0  0  0  6  0  0  0  0  0  0
    2.3209   -7.2159    9.6868 O   0  0  0  0  0  0  0  0  0  0  0  0
    0.7617   -7.0706    7.7963 O   0  0  0  0  0  0  0  0  0  0  0  0
    2.4227   -5.0192    8.1265 C   0  0  0  0  0  0  0  0  0  0  0  0
    2.1104   -4.4797    6.9006 C   0  0  0  0  0  0  0  0  0  0  0  0
    2.9006   -3.4891    6.3597 C   0  0  0  0  0  0  0  0  0  0  0  0
    3.9952   -3.0550    7.0615 C   0  0  0  0  0  0  0  0  0  0  0  0
    4.3343   -3.5760    8.2923 C   0  0  0  0  0  0  0  0  0  0  0  0
    3.5221   -4.5718    8.8135 C   0  0  0  0  0  0  0  0  0  0  0  0
    4.7556   -2.0744    6.4988 F   0  0  0  0  0  0  0  0  0  0  0  0
  1  2  1  0
  2  3  1  0
  3  4  1  0
  4  5  1  0
  5  6  1  0
  6  7  2  0
  7  8  1  0
  7  9  1  0
  9 10  2  0
 10 11  1  0
 11 12  2  0
 12 13  1  0
 13 14  2  0
 14 15  1  0
 15 16  1  0
 16 17  1  0
 17 18  2  0
 17 19  1  0
  2 20  1  0
 20 21  2  0
 20 22  2  0
 20 23  1  0
 23 24  2  0
 24 25  1  0
 25 26  2  0
 26 27  1  0
 27 28  2  0
 26 29  1  0
  8  3  1  0
 15  6  1  0
 14  9  1  0
 28 23  1  0
M  END
$$$$
