
     RDKit          3D

 29 32  0  0  0  0  0  0  0  0999 V2000
    0.3153    0.7092   12.9312 C   0  0  0  0  0  0  0  0  0  0  0  0
   -0.8272    0.4531   13.7476 N   0  0  0  0  0  0  0  0  0  0  0  0
   -1.8375   -0.3616   13.1103 C   0  0  0  0  0  0  0  0  0  0  0  0
   -1.9784   -1.6362   13.8772 C   0  0  0  0  0  0  0  0  0  0  0  0
   -2.2390   -2.8440   12.9981 C   0  0  0  0  0  0  0  0  0  0  0  0
   -1.2468   -2.9176   11.9088 C   0  0  0  0  0  0  0  0  0  0  0  0
   -0.9513   -1.7529   11.2365 C   0  0  0  0  0  0  0  0  0  0  0  0
   -1.6444   -0.5079   11.6424 C   0  0  0  0  0  0  0  0  0  0  0  0
   -0.0123   -2.0767   10.2826 C   0  0  0  0  0  0  0  0  0  0  0  0
    0.6097   -1.2745    9.3522 C   0  0  0  0  0  0  0  0  0  0  0  0
    1.5408   -1.8246    8.4736 C   0  0  0  0  0  0  0  0  0  0  0  0
    1.7962   -3.1679    8.5829 C   0  0  0  0  0  0  0  0  0  0  0  0
    1.1727   -3.9760    9.5169 C   0  0  0  0  0  0  0  0  0  0  0  0
    0.2524   -3.4335   10.3854 C   0  0  0  0  0  0  0  0  0  0  0  0
   -0.5231   -3.9233   11.3956 N   0  0  0  0  0  0  0  0  0  0  0  0
   -0.5171   -5.3131   11.7972 C   0  0  0  0  0  0  0  0  0  0  0  0
   -1.2481   -6.1554   10.8258 C   0  0  0  0  0  0  0  0  0  0  0  0
   -2.4281   -5.9269   10.4616 O   0  0  0  0  0  0  0  0  0  0  0  0
   -0.6075   -7.2503   10.2875 O   0  0  0  0  0  0  0  0  0  0  0  0
   -1.4403    1.8306   14.5277 S   0  0  0  0  0  6  0  0  0  0  0  0
   -1.7596    1.4446   15.9639 O   0  0  0  0  0  0  0  0  0  0  0  0
   -0.3943    2.9015   14.5358 O   0  0  0  0  0  0  0  0  0  0  0  0
   -2.8706    2.4029   13.7017 C   0  0  0  0  0  0  0  0  0  0  0  0
   -2.8474    3.5079   12.8832 C   0  0  0  0  0  0  0  0  0  0  0  0
   -3.9987    3.9243   12.2513 C   0  0  0  0  0  0  0  0  0  0  0  0
   -5.1584    3.2217   12.4526 C   0  0  0  0  0  0  0  0  0  0  0  0
   -5.2136    2.1104   13.2669 C   0  0  0  0  0  0  0  0  0  0  0  0
   -4.0406    1.7129   13.8906 C   0  0  0  0  0  0  0  0  0  0  0  0
   -6.2790    3.6597   11.8132 F   0  0  0  0  0  0  0  0  0  0  0  0
  1  2  1  0
  2  3  1  0
  3  4  1  0
  4  5  1  0
  5  6  1  0
  6  7  2  0
  7  8  1  0
  7  9  1  0
  9 10  2  0
 10 11  1  0
 11 12  2  0
 12 13  1  0
 13 14  2  0
 14 15  1  0
 15 16  1  0
 16 17  1  0
 17 18  2  0
 17 19  1  0
  2 20  1  0
 20 21  2  0
 20 22  2  0
 20 23  1  0
 23 24  2  0
 24 25  1  0
 25 26  2  0
 26 27  1  0
 27 28  2  0
 26 29  1  0
  8  3  1  0
 15  6  1  0
 14  9  1  0
 28 23  1  0
M  END
$$$$
