
     RDKit          3D

 29 32  0  0  0  0  0  0  0  0999 V2000
   -0.1310   -2.1128   13.4659 C   0  0  0  0  0  0  0  0  0  0  0  0
   -1.5216   -1.8249   13.3217 N   0  0  0  0  0  0  0  0  0  0  0  0
   -2.0104   -1.9379   11.9657 C   0  0  0  0  0  0  0  0  0  0  0  0
   -2.6657   -3.2707   11.8026 C   0  0  0  0  0  0  0  0  0  0  0  0
   -2.4366   -3.8933   10.4390 C   0  0  0  0  0  0  0  0  0  0  0  0
   -0.9998   -3.8976   10.1045 C   0  0  0  0  0  0  0  0  0  0  0  0
   -0.2840   -2.7482   10.3547 C   0  0  0  0  0  0  0  0  0  0  0  0
   -0.9951   -1.5860   10.9366 C   0  0  0  0  0  0  0  0  0  0  0  0
    1.0128   -2.9997    9.9651 C   0  0  0  0  0  0  0  0  0  0  0  0
    2.1186   -2.1802   10.0063 C   0  0  0  0  0  0  0  0  0  0  0  0
    3.3487   -2.6516    9.5525 C   0  0  0  0  0  0  0  0  0  0  0  0
    3.3965   -3.9375    9.0770 C   0  0  0  0  0  0  0  0  0  0  0  0
    2.2869   -4.7628    9.0345 C   0  0  0  0  0  0  0  0  0  0  0  0
    1.0709   -4.2979    9.4827 C   0  0  0  0  0  0  0  0  0  0  0  0
   -0.1839   -4.8246    9.5815 N   0  0  0  0  0  0  0  0  0  0  0  0
   -0.5128   -6.1722    9.1705 C   0  0  0  0  0  0  0  0  0  0  0  0
    0.6458   -7.0782    9.3254 C   0  0  0  0  0  0  0  0  0  0  0  0
    1.3376   -7.4887    8.3608 O   0  0  0  0  0  0  0  0  0  0  0  0
    0.9909   -7.4987   10.5915 O   0  0  0  0  0  0  0  0  0  0  0  0
   -2.0201   -0.4127   14.1212 S   0  0  0  0  0  6  0  0  0  0  0  0
   -3.5397   -0.3658   14.0719 O   0  0  0  0  0  0  0  0  0  0  0  0
   -1.5842   -0.4738   15.5520 O   0  0  0  0  0  0  0  0  0  0  0  0
   -1.3261    0.9930   13.3479 C   0  0  0  0  0  0  0  0  0  0  0  0
   -1.8490    1.5221   12.1911 C   0  0  0  0  0  0  0  0  0  0  0  0
   -1.2699    2.6317   11.6151 C   0  0  0  0  0  0  0  0  0  0  0  0
   -0.1714    3.1936   12.2125 C   0  0  0  0  0  0  0  0  0  0  0  0
    0.3757    2.6864   13.3720 C   0  0  0  0  0  0  0  0  0  0  0  0
   -0.2266    1.5692   13.9308 C   0  0  0  0  0  0  0  0  0  0  0  0
    0.3771    4.2897   11.6176 F   0  0  0  0  0  0  0  0  0  0  0  0
  1  2  1  0
  2  3  1  0
  3  4  1  0
  4  5  1  0
  5  6  1  0
  6  7  2  0
  7  8  1  0
  7  9  1  0
  9 10  2  0
 10 11  1  0
 11 12  2  0
 12 13  1  0
 13 14  2  0
 14 15  1  0
 15 16  1  0
 16 17  1  0
 17 18  2  0
 17 19  1  0
  2 20  1  0
 20 21  2  0
 20 22  2  0
 20 23  1  0
 23 24  2  0
 24 25  1  0
 25 26  2  0
 26 27  1  0
 27 28  2  0
 26 29  1  0
  8  3  1  0
 15  6  1  0
 14  9  1  0
 28 23  1  0
M  END
$$$$
