
     RDKit          3D

 29 32  0  0  0  0  0  0  0  0999 V2000
    0.6039   -0.1224   12.5878 C   0  0  0  0  0  0  0  0  0  0  0  0
   -0.7819   -0.2114   12.9183 N   0  0  0  0  0  0  0  0  0  0  0  0
   -1.6343   -0.5545   11.8020 C   0  0  0  0  0  0  0  0  0  0  0  0
   -2.5769   -1.6309   12.2326 C   0  0  0  0  0  0  0  0  0  0  0  0
   -2.8660   -2.6498   11.1474 C   0  0  0  0  0  0  0  0  0  0  0  0
   -1.6099   -3.1628   10.5683 C   0  0  0  0  0  0  0  0  0  0  0  0
   -0.6257   -2.2474   10.2692 C   0  0  0  0  0  0  0  0  0  0  0  0
   -0.8874   -0.8147   10.5418 C   0  0  0  0  0  0  0  0  0  0  0  0
    0.4314   -2.9615    9.7505 C   0  0  0  0  0  0  0  0  0  0  0  0
    1.6544   -2.5193    9.2980 C   0  0  0  0  0  0  0  0  0  0  0  0
    2.5848   -3.4336    8.8083 C   0  0  0  0  0  0  0  0  0  0  0  0
    2.2267   -4.7578    8.8018 C   0  0  0  0  0  0  0  0  0  0  0  0
    0.9986   -5.2046    9.2559 C   0  0  0  0  0  0  0  0  0  0  0  0
    0.0786   -4.3020    9.7400 C   0  0  0  0  0  0  0  0  0  0  0  0
   -1.1839   -4.3938   10.2496 N   0  0  0  0  0  0  0  0  0  0  0  0
   -1.8909   -5.6476   10.3950 C   0  0  0  0  0  0  0  0  0  0  0  0
   -1.4156   -6.3975   11.5778 C   0  0  0  0  0  0  0  0  0  0  0  0
   -0.2675   -6.8994   11.6639 O   0  0  0  0  0  0  0  0  0  0  0  0
   -2.2715   -6.5584   12.6457 O   0  0  0  0  0  0  0  0  0  0  0  0
   -1.3532    1.0866   13.8515 S   0  0  0  0  0  6  0  0  0  0  0  0
   -2.7798    0.7633   14.2684 O   0  0  0  0  0  0  0  0  0  0  0  0
   -0.5091    1.2221   15.0803 O   0  0  0  0  0  0  0  0  0  0  0  0
   -1.2935    2.5666   12.9232 C   0  0  0  0  0  0  0  0  0  0  0  0
   -2.2508    2.8795   11.9866 C   0  0  0  0  0  0  0  0  0  0  0  0
   -2.1647    4.0575   11.2772 C   0  0  0  0  0  0  0  0  0  0  0  0
   -1.1151    4.9048   11.5211 C   0  0  0  0  0  0  0  0  0  0  0  0
   -0.1401    4.6192   12.4533 C   0  0  0  0  0  0  0  0  0  0  0  0
   -0.2508    3.4271   13.1531 C   0  0  0  0  0  0  0  0  0  0  0  0
   -1.0594    6.0611   10.8027 F   0  0  0  0  0  0  0  0  0  0  0  0
  1  2  1  0
  2  3  1  0
  3  4  1  0
  4  5  1  0
  5  6  1  0
  6  7  2  0
  7  8  1  0
  7  9  1  0
  9 10  2  0
 10 11  1  0
 11 12  2  0
 12 13  1  0
 13 14  2  0
 14 15  1  0
 15 16  1  0
 16 17  1  0
 17 18  2  0
 17 19  1  0
  2 20  1  0
 20 21  2  0
 20 22  2  0
 20 23  1  0
 23 24  2  0
 24 25  1  0
 25 26  2  0
 26 27  1  0
 27 28  2  0
 26 29  1  0
  8  3  1  0
 15  6  1  0
 14  9  1  0
 28 23  1  0
M  END
$$$$
