
     RDKit          3D

 29 32  0  0  0  0  0  0  0  0999 V2000
   -1.9689   -2.5253   13.0845 C   0  0  0  0  0  0  0  0  0  0  0  0
   -2.2501   -1.5297   12.1010 N   0  0  0  0  0  0  0  0  0  0  0  0
   -1.1416   -1.2420   11.2185 C   0  0  0  0  0  0  0  0  0  0  0  0
   -1.5184   -1.6445    9.8297 C   0  0  0  0  0  0  0  0  0  0  0  0
   -0.3661   -2.2315    9.0377 C   0  0  0  0  0  0  0  0  0  0  0  0
    0.2976   -3.3039    9.8031 C   0  0  0  0  0  0  0  0  0  0  0  0
    0.5579   -3.0689   11.1346 C   0  0  0  0  0  0  0  0  0  0  0  0
    0.1618   -1.7631   11.7118 C   0  0  0  0  0  0  0  0  0  0  0  0
    1.1702   -4.2021   11.6218 C   0  0  0  0  0  0  0  0  0  0  0  0
    1.6300   -4.4778   12.8901 C   0  0  0  0  0  0  0  0  0  0  0  0
    2.2250   -5.7085   13.1600 C   0  0  0  0  0  0  0  0  0  0  0  0
    2.3247   -6.6030   12.1248 C   0  0  0  0  0  0  0  0  0  0  0  0
    1.8636   -6.3284   10.8497 C   0  0  0  0  0  0  0  0  0  0  0  0
    1.2755   -5.1127   10.5819 C   0  0  0  0  0  0  0  0  0  0  0  0
    0.7294   -4.5305    9.4752 N   0  0  0  0  0  0  0  0  0  0  0  0
    0.6594   -5.1859    8.1874 C   0  0  0  0  0  0  0  0  0  0  0  0
    1.9930   -5.2657    7.5528 C   0  0  0  0  0  0  0  0  0  0  0  0
    2.7257   -6.2843    7.6072 O   0  0  0  0  0  0  0  0  0  0  0  0
    2.4634   -4.1689    6.8639 O   0  0  0  0  0  0  0  0  0  0  0  0
   -3.0192   -0.1480   12.7185 S   0  0  0  0  0  6  0  0  0  0  0  0
   -3.8500    0.4581   11.5977 O   0  0  0  0  0  0  0  0  0  0  0  0
   -3.9321   -0.5473   13.8357 O   0  0  0  0  0  0  0  0  0  0  0  0
   -1.8296    0.9924   13.3016 C   0  0  0  0  0  0  0  0  0  0  0  0
   -1.2691    1.9447   12.4828 C   0  0  0  0  0  0  0  0  0  0  0  0
   -0.3346    2.8241   12.9843 C   0  0  0  0  0  0  0  0  0  0  0  0
    0.0229    2.7323   14.3045 C   0  0  0  0  0  0  0  0  0  0  0  0
   -0.5211    1.7888   15.1503 C   0  0  0  0  0  0  0  0  0  0  0  0
   -1.4593    0.9162   14.6198 C   0  0  0  0  0  0  0  0  0  0  0  0
    0.9494    3.6166   14.7690 F   0  0  0  0  0  0  0  0  0  0  0  0
  1  2  1  0
  2  3  1  0
  3  4  1  0
  4  5  1  0
  5  6  1  0
  6  7  2  0
  7  8  1  0
  7  9  1  0
  9 10  2  0
 10 11  1  0
 11 12  2  0
 12 13  1  0
 13 14  2  0
 14 15  1  0
 15 16  1  0
 16 17  1  0
 17 18  2  0
 17 19  1  0
  2 20  1  0
 20 21  2  0
 20 22  2  0
 20 23  1  0
 23 24  2  0
 24 25  1  0
 25 26  2  0
 26 27  1  0
 27 28  2  0
 26 29  1  0
  8  3  1  0
 15  6  1  0
 14  9  1  0
 28 23  1  0
M  END
$$$$
