
     RDKit          3D

 29 32  0  0  0  0  0  0  0  0999 V2000
    0.4007    0.0895   11.5683 C   0  0  0  0  0  0  0  0  0  0  0  0
   -0.5158   -0.9216   11.9868 N   0  0  0  0  0  0  0  0  0  0  0  0
   -1.2127   -1.5729   10.9004 C   0  0  0  0  0  0  0  0  0  0  0  0
   -1.7652   -2.8700   11.3955 C   0  0  0  0  0  0  0  0  0  0  0  0
   -1.7133   -3.9810   10.3647 C   0  0  0  0  0  0  0  0  0  0  0  0
   -0.3582   -4.0968    9.7932 C   0  0  0  0  0  0  0  0  0  0  0  0
    0.2845   -2.9324    9.4367 C   0  0  0  0  0  0  0  0  0  0  0  0
   -0.4195   -1.6453    9.6438 C   0  0  0  0  0  0  0  0  0  0  0  0
    1.5149   -3.2990    8.9382 C   0  0  0  0  0  0  0  0  0  0  0  0
    2.5348   -2.5146    8.4478 C   0  0  0  0  0  0  0  0  0  0  0  0
    3.7085   -3.1094    7.9895 C   0  0  0  0  0  0  0  0  0  0  0  0
    3.7899   -4.4774    8.0517 C   0  0  0  0  0  0  0  0  0  0  0  0
    2.7666   -5.2677    8.5440 C   0  0  0  0  0  0  0  0  0  0  0  0
    1.6064   -4.6809    8.9970 C   0  0  0  0  0  0  0  0  0  0  0  0
    0.4376   -5.1432    9.5281 N   0  0  0  0  0  0  0  0  0  0  0  0
    0.1655   -6.5476    9.7436 C   0  0  0  0  0  0  0  0  0  0  0  0
    1.4108   -7.3452    9.7205 C   0  0  0  0  0  0  0  0  0  0  0  0
    2.1052   -7.5148    8.6878 O   0  0  0  0  0  0  0  0  0  0  0  0
    1.8383   -7.9364   10.8895 O   0  0  0  0  0  0  0  0  0  0  0  0
   -1.5219   -0.4518   13.2710 S   0  0  0  0  0  6  0  0  0  0  0  0
   -1.6616   -1.6420   14.2078 O   0  0  0  0  0  0  0  0  0  0  0  0
   -0.8796    0.6769   14.0156 O   0  0  0  0  0  0  0  0  0  0  0  0
   -3.0813    0.0497   12.6608 C   0  0  0  0  0  0  0  0  0  0  0  0
   -4.2380   -0.6261   12.9715 C   0  0  0  0  0  0  0  0  0  0  0  0
   -5.4463   -0.1958   12.4683 C   0  0  0  0  0  0  0  0  0  0  0  0
   -5.4730    0.9100   11.6586 C   0  0  0  0  0  0  0  0  0  0  0  0
   -4.3307    1.6085   11.3291 C   0  0  0  0  0  0  0  0  0  0  0  0
   -3.1281    1.1540   11.8490 C   0  0  0  0  0  0  0  0  0  0  0  0
   -6.6836    1.3092   11.1777 F   0  0  0  0  0  0  0  0  0  0  0  0
  1  2  1  0
  2  3  1  0
  3  4  1  0
  4  5  1  0
  5  6  1  0
  6  7  2  0
  7  8  1  0
  7  9  1  0
  9 10  2  0
 10 11  1  0
 11 12  2  0
 12 13  1  0
 13 14  2  0
 14 15  1  0
 15 16  1  0
 16 17  1  0
 17 18  2  0
 17 19  1  0
  2 20  1  0
 20 21  2  0
 20 22  2  0
 20 23  1  0
 23 24  2  0
 24 25  1  0
 25 26  2  0
 26 27  1  0
 27 28  2  0
 26 29  1  0
  8  3  1  0
 15  6  1  0
 14  9  1  0
 28 23  1  0
M  END
$$$$
