
     RDKit          3D

 29 32  0  0  0  0  0  0  0  0999 V2000
    0.7540   -0.3061   11.2300 C   0  0  0  0  0  0  0  0  0  0  0  0
   -0.0751   -1.2652   11.8858 N   0  0  0  0  0  0  0  0  0  0  0  0
   -0.7589   -2.1677   10.9866 C   0  0  0  0  0  0  0  0  0  0  0  0
   -0.8964   -3.4968   11.6554 C   0  0  0  0  0  0  0  0  0  0  0  0
   -0.7436   -4.6691   10.7057 C   0  0  0  0  0  0  0  0  0  0  0  0
    0.4904   -4.5347    9.9086 C   0  0  0  0  0  0  0  0  0  0  0  0
    0.7684   -3.2992    9.3680 C   0  0  0  0  0  0  0  0  0  0  0  0
   -0.1826   -2.1902    9.6151 C   0  0  0  0  0  0  0  0  0  0  0  0
    1.9549   -3.4282    8.6810 C   0  0  0  0  0  0  0  0  0  0  0  0
    2.6641   -2.4893    7.9657 C   0  0  0  0  0  0  0  0  0  0  0  0
    3.8579   -2.8481    7.3431 C   0  0  0  0  0  0  0  0  0  0  0  0
    4.2752   -4.1479    7.4776 C   0  0  0  0  0  0  0  0  0  0  0  0
    3.5645   -5.0930    8.1956 C   0  0  0  0  0  0  0  0  0  0  0  0
    2.3848   -4.7396    8.8113 C   0  0  0  0  0  0  0  0  0  0  0  0
    1.4620   -5.3959    9.5725 N   0  0  0  0  0  0  0  0  0  0  0  0
    1.5741   -6.7950    9.9233 C   0  0  0  0  0  0  0  0  0  0  0  0
    0.6591   -7.6266    9.1119 C   0  0  0  0  0  0  0  0  0  0  0  0
   -0.5583   -7.7800    9.3800 O   0  0  0  0  0  0  0  0  0  0  0  0
    1.1610   -8.2704    8.0017 O   0  0  0  0  0  0  0  0  0  0  0  0
   -1.0702   -0.6061   13.0931 S   0  0  0  0  0  6  0  0  0  0  0  0
   -0.9158   -1.4650   14.3389 O   0  0  0  0  0  0  0  0  0  0  0  0
   -0.6143    0.7852   13.4052 O   0  0  0  0  0  0  0  0  0  0  0  0
   -2.7328   -0.5800   12.5540 C   0  0  0  0  0  0  0  0  0  0  0  0
   -3.2547    0.4795   11.8494 C   0  0  0  0  0  0  0  0  0  0  0  0
   -4.5713    0.4584   11.4439 C   0  0  0  0  0  0  0  0  0  0  0  0
   -5.3446   -0.6302   11.7537 C   0  0  0  0  0  0  0  0  0  0  0  0
   -4.8504   -1.7074   12.4585 C   0  0  0  0  0  0  0  0  0  0  0  0
   -3.5222   -1.6604   12.8545 C   0  0  0  0  0  0  0  0  0  0  0  0
   -6.6421   -0.6197   11.3380 F   0  0  0  0  0  0  0  0  0  0  0  0
  1  2  1  0
  2  3  1  0
  3  4  1  0
  4  5  1  0
  5  6  1  0
  6  7  2  0
  7  8  1  0
  7  9  1  0
  9 10  2  0
 10 11  1  0
 11 12  2  0
 12 13  1  0
 13 14  2  0
 14 15  1  0
 15 16  1  0
 16 17  1  0
 17 18  2  0
 17 19  1  0
  2 20  1  0
 20 21  2  0
 20 22  2  0
 20 23  1  0
 23 24  2  0
 24 25  1  0
 25 26  2  0
 26 27  1  0
 27 28  2  0
 26 29  1  0
  8  3  1  0
 15  6  1  0
 14  9  1  0
 28 23  1  0
M  END
$$$$
