
     RDKit          3D

 29 32  0  0  0  0  0  0  0  0999 V2000
    0.8295   -0.2306   10.6778 C   0  0  0  0  0  0  0  0  0  0  0  0
   -0.2488   -0.8596   11.3699 N   0  0  0  0  0  0  0  0  0  0  0  0
   -0.8296   -1.9800   10.6643 C   0  0  0  0  0  0  0  0  0  0  0  0
   -0.8693   -3.1566   11.5844 C   0  0  0  0  0  0  0  0  0  0  0  0
   -0.5925   -4.4758   10.8896 C   0  0  0  0  0  0  0  0  0  0  0  0
    0.6451   -4.3930   10.0910 C   0  0  0  0  0  0  0  0  0  0  0  0
    0.8294   -3.2696    9.3164 C   0  0  0  0  0  0  0  0  0  0  0  0
   -0.2192   -2.2229    9.3294 C   0  0  0  0  0  0  0  0  0  0  0  0
    2.0396   -3.4261    8.6780 C   0  0  0  0  0  0  0  0  0  0  0  0
    2.6833   -2.5886    7.7947 C   0  0  0  0  0  0  0  0  0  0  0  0
    3.9188   -2.9559    7.2655 C   0  0  0  0  0  0  0  0  0  0  0  0
    4.4427   -4.1607    7.6604 C   0  0  0  0  0  0  0  0  0  0  0  0
    3.7979   -5.0039    8.5476 C   0  0  0  0  0  0  0  0  0  0  0  0
    2.5771   -4.6419    9.0712 C   0  0  0  0  0  0  0  0  0  0  0  0
    1.6952   -5.2136    9.9414 N   0  0  0  0  0  0  0  0  0  0  0  0
    1.9181   -6.4994   10.5658 C   0  0  0  0  0  0  0  0  0  0  0  0
    1.1876   -7.5733    9.8584 C   0  0  0  0  0  0  0  0  0  0  0  0
    1.4751   -7.9579    8.6979 O   0  0  0  0  0  0  0  0  0  0  0  0
    0.1348   -8.1892   10.4997 O   0  0  0  0  0  0  0  0  0  0  0  0
   -1.3901    0.2267   12.0017 S   0  0  0  0  0  6  0  0  0  0  0  0
   -0.8464    0.7524   13.3215 O   0  0  0  0  0  0  0  0  0  0  0  0
   -1.5571    1.3748   11.0557 O   0  0  0  0  0  0  0  0  0  0  0  0
   -2.9234   -0.5798   12.2343 C   0  0  0  0  0  0  0  0  0  0  0  0
   -3.2491   -1.2006   13.4175 C   0  0  0  0  0  0  0  0  0  0  0  0
   -4.4695   -1.8246   13.5575 C   0  0  0  0  0  0  0  0  0  0  0  0
   -5.3456   -1.8148   12.5033 C   0  0  0  0  0  0  0  0  0  0  0  0
   -5.0482   -1.2010   11.3050 C   0  0  0  0  0  0  0  0  0  0  0  0
   -3.8133   -0.5805   11.1908 C   0  0  0  0  0  0  0  0  0  0  0  0
   -6.5437   -2.4407   12.6744 F   0  0  0  0  0  0  0  0  0  0  0  0
  1  2  1  0
  2  3  1  0
  3  4  1  0
  4  5  1  0
  5  6  1  0
  6  7  2  0
  7  8  1  0
  7  9  1  0
  9 10  2  0
 10 11  1  0
 11 12  2  0
 12 13  1  0
 13 14  2  0
 14 15  1  0
 15 16  1  0
 16 17  1  0
 17 18  2  0
 17 19  1  0
  2 20  1  0
 20 21  2  0
 20 22  2  0
 20 23  1  0
 23 24  2  0
 24 25  1  0
 25 26  2  0
 26 27  1  0
 27 28  2  0
 26 29  1  0
  8  3  1  0
 15  6  1  0
 14  9  1  0
 28 23  1  0
M  END
$$$$
