
     RDKit          3D

 29 32  0  0  0  0  0  0  0  0999 V2000
    0.1595    0.4612   11.5045 C   0  0  0  0  0  0  0  0  0  0  0  0
   -0.8305   -0.2840   12.2130 N   0  0  0  0  0  0  0  0  0  0  0  0
   -1.5337   -1.2521   11.4015 C   0  0  0  0  0  0  0  0  0  0  0  0
   -1.7417   -2.4924   12.2086 C   0  0  0  0  0  0  0  0  0  0  0  0
   -1.6199   -3.7678   11.3975 C   0  0  0  0  0  0  0  0  0  0  0  0
   -0.3652   -3.7725   10.6216 C   0  0  0  0  0  0  0  0  0  0  0  0
   -0.0236   -2.6166    9.9558 C   0  0  0  0  0  0  0  0  0  0  0  0
   -0.9310   -1.4496   10.0557 C   0  0  0  0  0  0  0  0  0  0  0  0
    1.1701   -2.8687    9.3170 C   0  0  0  0  0  0  0  0  0  0  0  0
    1.9334   -2.0442    8.5210 C   0  0  0  0  0  0  0  0  0  0  0  0
    3.1232   -2.5175    7.9716 C   0  0  0  0  0  0  0  0  0  0  0  0
    3.4816   -3.8102    8.2584 C   0  0  0  0  0  0  0  0  0  0  0  0
    2.7165   -4.6405    9.0579 C   0  0  0  0  0  0  0  0  0  0  0  0
    1.5407   -4.1738    9.6012 C   0  0  0  0  0  0  0  0  0  0  0  0
    0.5753   -4.7041   10.4066 N   0  0  0  0  0  0  0  0  0  0  0  0
    0.6202   -6.0590   10.9116 C   0  0  0  0  0  0  0  0  0  0  0  0
    0.4212   -7.0432    9.8257 C   0  0  0  0  0  0  0  0  0  0  0  0
   -0.5492   -7.0085    9.0291 O   0  0  0  0  0  0  0  0  0  0  0  0
    1.3447   -8.0546    9.6735 O   0  0  0  0  0  0  0  0  0  0  0  0
   -1.8435    0.6675   13.1879 S   0  0  0  0  0  6  0  0  0  0  0  0
   -1.9558   -0.0154   14.5424 O   0  0  0  0  0  0  0  0  0  0  0  0
   -1.2237    2.0171   13.3766 O   0  0  0  0  0  0  0  0  0  0  0  0
   -3.4146    0.8343   12.4399 C   0  0  0  0  0  0  0  0  0  0  0  0
   -4.3728   -0.1483   12.5285 C   0  0  0  0  0  0  0  0  0  0  0  0
   -5.5983    0.0249   11.9233 C   0  0  0  0  0  0  0  0  0  0  0  0
   -5.8421    1.1860   11.2367 C   0  0  0  0  0  0  0  0  0  0  0  0
   -4.9021    2.1891   11.1300 C   0  0  0  0  0  0  0  0  0  0  0  0
   -3.6772    1.9891   11.7485 C   0  0  0  0  0  0  0  0  0  0  0  0
   -7.0638    1.3258   10.6499 F   0  0  0  0  0  0  0  0  0  0  0  0
  1  2  1  0
  2  3  1  0
  3  4  1  0
  4  5  1  0
  5  6  1  0
  6  7  2  0
  7  8  1  0
  7  9  1  0
  9 10  2  0
 10 11  1  0
 11 12  2  0
 12 13  1  0
 13 14  2  0
 14 15  1  0
 15 16  1  0
 16 17  1  0
 17 18  2  0
 17 19  1  0
  2 20  1  0
 20 21  2  0
 20 22  2  0
 20 23  1  0
 23 24  2  0
 24 25  1  0
 25 26  2  0
 26 27  1  0
 27 28  2  0
 26 29  1  0
  8  3  1  0
 15  6  1  0
 14  9  1  0
 28 23  1  0
M  END
$$$$
