
     RDKit          3D

 29 32  0  0  0  0  0  0  0  0999 V2000
   -2.3601    4.4422   10.7260 C   0  0  0  0  0  0  0  0  0  0  0  0
   -1.3086    4.4581   11.6912 N   0  0  0  0  0  0  0  0  0  0  0  0
   -1.7032    3.9924   13.0019 C   0  0  0  0  0  0  0  0  0  0  0  0
   -0.6336    3.0943   13.5329 C   0  0  0  0  0  0  0  0  0  0  0  0
   -1.1707    1.9244   14.3345 C   0  0  0  0  0  0  0  0  0  0  0  0
   -2.2169    1.2119   13.5769 C   0  0  0  0  0  0  0  0  0  0  0  0
   -3.1689    1.9725   12.9357 C   0  0  0  0  0  0  0  0  0  0  0  0
   -3.0870    3.4477   13.0475 C   0  0  0  0  0  0  0  0  0  0  0  0
   -4.0195    1.0904   12.3073 C   0  0  0  0  0  0  0  0  0  0  0  0
   -5.1320    1.3395   11.5351 C   0  0  0  0  0  0  0  0  0  0  0  0
   -5.8518    0.2770   10.9923 C   0  0  0  0  0  0  0  0  0  0  0  0
   -5.4051   -0.9918   11.2610 C   0  0  0  0  0  0  0  0  0  0  0  0
   -4.2876   -1.2447   12.0365 C   0  0  0  0  0  0  0  0  0  0  0  0
   -3.5757   -0.1956   12.5733 C   0  0  0  0  0  0  0  0  0  0  0  0
   -2.4642   -0.0878   13.3574 N   0  0  0  0  0  0  0  0  0  0  0  0
   -1.7200   -1.2309   13.8394 C   0  0  0  0  0  0  0  0  0  0  0  0
   -2.1449   -1.6111   15.2041 C   0  0  0  0  0  0  0  0  0  0  0  0
   -3.2106   -1.2104   15.7342 O   0  0  0  0  0  0  0  0  0  0  0  0
   -1.3342   -2.4488   15.9390 O   0  0  0  0  0  0  0  0  0  0  0  0
   -0.4115    5.8993   11.7104 S   0  0  0  0  0  6  0  0  0  0  0  0
    0.9886    5.5655   12.2023 O   0  0  0  0  0  0  0  0  0  0  0  0
   -0.3185    6.4429   10.3187 O   0  0  0  0  0  0  0  0  0  0  0  0
   -1.1786    7.0712   12.7563 C   0  0  0  0  0  0  0  0  0  0  0  0
   -0.8932    7.1476   14.0994 C   0  0  0  0  0  0  0  0  0  0  0  0
   -1.5215    8.0871   14.8873 C   0  0  0  0  0  0  0  0  0  0  0  0
   -2.4294    8.9374   14.3111 C   0  0  0  0  0  0  0  0  0  0  0  0
   -2.7367    8.8855   12.9680 C   0  0  0  0  0  0  0  0  0  0  0  0
   -2.0899    7.9306   12.1980 C   0  0  0  0  0  0  0  0  0  0  0  0
   -3.0330    9.8546   15.1178 F   0  0  0  0  0  0  0  0  0  0  0  0
  1  2  1  0
  2  3  1  0
  3  4  1  0
  4  5  1  0
  5  6  1  0
  6  7  2  0
  7  8  1  0
  7  9  1  0
  9 10  2  0
 10 11  1  0
 11 12  2  0
 12 13  1  0
 13 14  2  0
 14 15  1  0
 15 16  1  0
 16 17  1  0
 17 18  2  0
 17 19  1  0
  2 20  1  0
 20 21  2  0
 20 22  2  0
 20 23  1  0
 23 24  2  0
 24 25  1  0
 25 26  2  0
 26 27  1  0
 27 28  2  0
 26 29  1  0
  8  3  1  0
 15  6  1  0
 14  9  1  0
 28 23  1  0
M  END
$$$$
