
     RDKit          3D

 29 32  0  0  0  0  0  0  0  0999 V2000
    0.5805   -1.7633   13.1391 C   0  0  0  0  0  0  0  0  0  0  0  0
   -0.8434   -1.6705   13.1026 N   0  0  0  0  0  0  0  0  0  0  0  0
   -1.4124   -1.8391   11.7842 C   0  0  0  0  0  0  0  0  0  0  0  0
   -2.0823   -3.1731   11.7190 C   0  0  0  0  0  0  0  0  0  0  0  0
   -1.9374   -3.8563   10.3730 C   0  0  0  0  0  0  0  0  0  0  0  0
   -0.5231   -3.8854    9.9546 C   0  0  0  0  0  0  0  0  0  0  0  0
    0.2115   -2.7314   10.1111 C   0  0  0  0  0  0  0  0  0  0  0  0
   -0.4586   -1.5397   10.6823 C   0  0  0  0  0  0  0  0  0  0  0  0
    1.4817   -3.0088    9.6569 C   0  0  0  0  0  0  0  0  0  0  0  0
    2.5916   -2.1962    9.5966 C   0  0  0  0  0  0  0  0  0  0  0  0
    3.7905   -2.6957    9.0920 C   0  0  0  0  0  0  0  0  0  0  0  0
    3.8041   -4.0014    8.6716 C   0  0  0  0  0  0  0  0  0  0  0  0
    2.6903   -4.8199    8.7312 C   0  0  0  0  0  0  0  0  0  0  0  0
    1.5052   -4.3272    9.2296 C   0  0  0  0  0  0  0  0  0  0  0  0
    0.2561   -4.8402    9.4256 N   0  0  0  0  0  0  0  0  0  0  0  0
   -0.1027   -6.2020    9.0945 C   0  0  0  0  0  0  0  0  0  0  0  0
    0.4055   -7.1523   10.1074 C   0  0  0  0  0  0  0  0  0  0  0  0
    1.4347   -7.8534    9.9442 O   0  0  0  0  0  0  0  0  0  0  0  0
   -0.2806   -7.2808   11.2955 O   0  0  0  0  0  0  0  0  0  0  0  0
   -1.4708   -0.3480   13.9627 S   0  0  0  0  0  6  0  0  0  0  0  0
   -2.9216   -0.6601   14.2963 O   0  0  0  0  0  0  0  0  0  0  0  0
   -0.7064   -0.1800   15.2388 O   0  0  0  0  0  0  0  0  0  0  0  0
   -1.3495    1.1068   13.0012 C   0  0  0  0  0  0  0  0  0  0  0  0
   -0.2255    1.8991   13.0154 C   0  0  0  0  0  0  0  0  0  0  0  0
   -0.1727    3.0378   12.2415 C   0  0  0  0  0  0  0  0  0  0  0  0
   -1.2534    3.3630   11.4633 C   0  0  0  0  0  0  0  0  0  0  0  0
   -2.3940    2.5891   11.4276 C   0  0  0  0  0  0  0  0  0  0  0  0
   -2.4207    1.4486   12.2161 C   0  0  0  0  0  0  0  0  0  0  0  0
   -1.1690    4.4951   10.7100 F   0  0  0  0  0  0  0  0  0  0  0  0
  1  2  1  0
  2  3  1  0
  3  4  1  0
  4  5  1  0
  5  6  1  0
  6  7  2  0
  7  8  1  0
  7  9  1  0
  9 10  2  0
 10 11  1  0
 11 12  2  0
 12 13  1  0
 13 14  2  0
 14 15  1  0
 15 16  1  0
 16 17  1  0
 17 18  2  0
 17 19  1  0
  2 20  1  0
 20 21  2  0
 20 22  2  0
 20 23  1  0
 23 24  2  0
 24 25  1  0
 25 26  2  0
 26 27  1  0
 27 28  2  0
 26 29  1  0
  8  3  1  0
 15  6  1  0
 14  9  1  0
 28 23  1  0
M  END
$$$$
