
     RDKit          3D

 29 32  0  0  0  0  0  0  0  0999 V2000
   -0.4173   -3.5176    8.3943 C   0  0  0  0  0  0  0  0  0  0  0  0
    0.1245   -4.5742    9.1864 N   0  0  0  0  0  0  0  0  0  0  0  0
    0.6182   -4.1507   10.4776 C   0  0  0  0  0  0  0  0  0  0  0  0
    0.0356   -5.0396   11.5279 C   0  0  0  0  0  0  0  0  0  0  0  0
   -0.2975   -4.3133   12.8167 C   0  0  0  0  0  0  0  0  0  0  0  0
   -1.1108   -3.1135   12.5419 C   0  0  0  0  0  0  0  0  0  0  0  0
   -0.7233   -2.3073   11.4951 C   0  0  0  0  0  0  0  0  0  0  0  0
    0.4786   -2.6889   10.7172 C   0  0  0  0  0  0  0  0  0  0  0  0
   -1.6281   -1.2705   11.4411 C   0  0  0  0  0  0  0  0  0  0  0  0
   -1.6878   -0.1987   10.5788 C   0  0  0  0  0  0  0  0  0  0  0  0
   -2.7066    0.7426   10.7116 C   0  0  0  0  0  0  0  0  0  0  0  0
   -3.6188    0.5491   11.7177 C   0  0  0  0  0  0  0  0  0  0  0  0
   -3.5610   -0.5270   12.5854 C   0  0  0  0  0  0  0  0  0  0  0  0
   -2.5548   -1.4577   12.4550 C   0  0  0  0  0  0  0  0  0  0  0  0
   -2.2094   -2.6008   13.1151 N   0  0  0  0  0  0  0  0  0  0  0  0
   -2.9516   -3.1199   14.2432 C   0  0  0  0  0  0  0  0  0  0  0  0
   -2.1178   -3.1536   15.4643 C   0  0  0  0  0  0  0  0  0  0  0  0
   -1.4877   -2.1584   15.9001 O   0  0  0  0  0  0  0  0  0  0  0  0
   -2.0223   -4.3354   16.1665 O   0  0  0  0  0  0  0  0  0  0  0  0
    1.1852   -5.5955    8.3415 S   0  0  0  0  0  6  0  0  0  0  0  0
    1.5708   -6.7341    9.2735 O   0  0  0  0  0  0  0  0  0  0  0  0
    0.4804   -6.1639    7.1493 O   0  0  0  0  0  0  0  0  0  0  0  0
    2.5975   -4.7030    7.8274 C   0  0  0  0  0  0  0  0  0  0  0  0
    2.7468   -4.2542    6.5360 C   0  0  0  0  0  0  0  0  0  0  0  0
    3.8769   -3.5542    6.1738 C   0  0  0  0  0  0  0  0  0  0  0  0
    4.8417   -3.3156    7.1179 C   0  0  0  0  0  0  0  0  0  0  0  0
    4.7210   -3.7524    8.4201 C   0  0  0  0  0  0  0  0  0  0  0  0
    3.5738   -4.4545    8.7579 C   0  0  0  0  0  0  0  0  0  0  0  0
    5.9466   -2.6206    6.7273 F   0  0  0  0  0  0  0  0  0  0  0  0
  1  2  1  0
  2  3  1  0
  3  4  1  0
  4  5  1  0
  5  6  1  0
  6  7  2  0
  7  8  1  0
  7  9  1  0
  9 10  2  0
 10 11  1  0
 11 12  2  0
 12 13  1  0
 13 14  2  0
 14 15  1  0
 15 16  1  0
 16 17  1  0
 17 18  2  0
 17 19  1  0
  2 20  1  0
 20 21  2  0
 20 22  2  0
 20 23  1  0
 23 24  2  0
 24 25  1  0
 25 26  2  0
 26 27  1  0
 27 28  2  0
 26 29  1  0
  8  3  1  0
 15  6  1  0
 14  9  1  0
 28 23  1  0
M  END
$$$$
