
     RDKit          3D

 29 32  0  0  0  0  0  0  0  0999 V2000
   -0.2534   -5.2119    8.9227 C   0  0  0  0  0  0  0  0  0  0  0  0
    0.9559   -5.4426    9.6450 N   0  0  0  0  0  0  0  0  0  0  0  0
    1.3289   -4.3635   10.5320 C   0  0  0  0  0  0  0  0  0  0  0  0
    1.1959   -4.8362   11.9432 C   0  0  0  0  0  0  0  0  0  0  0  0
    0.6907   -3.7672   12.8928 C   0  0  0  0  0  0  0  0  0  0  0  0
   -0.5344   -3.1387   12.3633 C   0  0  0  0  0  0  0  0  0  0  0  0
   -0.5495   -2.7962   11.0297 C   0  0  0  0  0  0  0  0  0  0  0  0
    0.6566   -3.0745   10.2155 C   0  0  0  0  0  0  0  0  0  0  0  0
   -1.7832   -2.2370   10.7811 C   0  0  0  0  0  0  0  0  0  0  0  0
   -2.3007   -1.7330    9.6088 C   0  0  0  0  0  0  0  0  0  0  0  0
   -3.5915   -1.2085    9.5893 C   0  0  0  0  0  0  0  0  0  0  0  0
   -4.2968   -1.2213   10.7658 C   0  0  0  0  0  0  0  0  0  0  0  0
   -3.7791   -1.7270   11.9449 C   0  0  0  0  0  0  0  0  0  0  0  0
   -2.5038   -2.2455   11.9652 C   0  0  0  0  0  0  0  0  0  0  0  0
   -1.7080   -2.8068   12.9210 N   0  0  0  0  0  0  0  0  0  0  0  0
   -2.1247   -2.9855   14.2949 C   0  0  0  0  0  0  0  0  0  0  0  0
   -2.9771   -4.1847   14.4454 C   0  0  0  0  0  0  0  0  0  0  0  0
   -2.5735   -5.3532   14.2236 O   0  0  0  0  0  0  0  0  0  0  0  0
   -4.2840   -4.0197   14.8499 O   0  0  0  0  0  0  0  0  0  0  0  0
    2.2317   -6.0226    8.6869 S   0  0  0  0  0  6  0  0  0  0  0  0
    3.3095   -6.5493    9.6221 O   0  0  0  0  0  0  0  0  0  0  0  0
    1.7378   -7.1499    7.8346 O   0  0  0  0  0  0  0  0  0  0  0  0
    2.8544   -4.7408    7.6746 C   0  0  0  0  0  0  0  0  0  0  0  0
    3.9501   -3.9924    8.0363 C   0  0  0  0  0  0  0  0  0  0  0  0
    4.4073   -2.9911    7.2077 C   0  0  0  0  0  0  0  0  0  0  0  0
    3.7544   -2.7571    6.0254 C   0  0  0  0  0  0  0  0  0  0  0  0
    2.6536   -3.4900    5.6351 C   0  0  0  0  0  0  0  0  0  0  0  0
    2.2143   -4.4917    6.4876 C   0  0  0  0  0  0  0  0  0  0  0  0
    4.2319   -1.7600    5.2290 F   0  0  0  0  0  0  0  0  0  0  0  0
  1  2  1  0
  2  3  1  0
  3  4  1  0
  4  5  1  0
  5  6  1  0
  6  7  2  0
  7  8  1  0
  7  9  1  0
  9 10  2  0
 10 11  1  0
 11 12  2  0
 12 13  1  0
 13 14  2  0
 14 15  1  0
 15 16  1  0
 16 17  1  0
 17 18  2  0
 17 19  1  0
  2 20  1  0
 20 21  2  0
 20 22  2  0
 20 23  1  0
 23 24  2  0
 24 25  1  0
 25 26  2  0
 26 27  1  0
 27 28  2  0
 26 29  1  0
  8  3  1  0
 15  6  1  0
 14  9  1  0
 28 23  1  0
M  END
$$$$
