
     RDKit          3D

 29 32  0  0  0  0  0  0  0  0999 V2000
   -2.5646   -0.6160   11.9558 C   0  0  0  0  0  0  0  0  0  0  0  0
   -1.2908   -0.0757   12.3065 N   0  0  0  0  0  0  0  0  0  0  0  0
   -0.4435   -0.9893   13.0399 C   0  0  0  0  0  0  0  0  0  0  0  0
    0.8412   -1.1535   12.2948 C   0  0  0  0  0  0  0  0  0  0  0  0
    1.4006   -2.5615   12.3589 C   0  0  0  0  0  0  0  0  0  0  0  0
    0.3701   -3.5477   11.9824 C   0  0  0  0  0  0  0  0  0  0  0  0
   -0.8888   -3.3895   12.5172 C   0  0  0  0  0  0  0  0  0  0  0  0
   -1.1288   -2.2499   13.4331 C   0  0  0  0  0  0  0  0  0  0  0  0
   -1.6591   -4.4177   12.0211 C   0  0  0  0  0  0  0  0  0  0  0  0
   -2.9851   -4.7119   12.2471 C   0  0  0  0  0  0  0  0  0  0  0  0
   -3.5651   -5.8185   11.6303 C   0  0  0  0  0  0  0  0  0  0  0  0
   -2.7672   -6.5757   10.8107 C   0  0  0  0  0  0  0  0  0  0  0  0
   -1.4347   -6.2822   10.5820 C   0  0  0  0  0  0  0  0  0  0  0  0
   -0.8606   -5.1889   11.1910 C   0  0  0  0  0  0  0  0  0  0  0  0
    0.3832   -4.6279   11.1876 N   0  0  0  0  0  0  0  0  0  0  0  0
    1.4920   -5.1624   10.4276 C   0  0  0  0  0  0  0  0  0  0  0  0
    1.1981   -5.1631    8.9781 C   0  0  0  0  0  0  0  0  0  0  0  0
    0.2458   -5.8013    8.4651 O   0  0  0  0  0  0  0  0  0  0  0  0
    2.0072   -4.4273    8.1397 O   0  0  0  0  0  0  0  0  0  0  0  0
   -1.3627    1.4851   12.9704 S   0  0  0  0  0  6  0  0  0  0  0  0
   -2.4899    1.5014   13.9916 O   0  0  0  0  0  0  0  0  0  0  0  0
   -0.0731    1.7859   13.6686 O   0  0  0  0  0  0  0  0  0  0  0  0
   -1.6446    2.6625   11.7095 C   0  0  0  0  0  0  0  0  0  0  0  0
   -0.7274    3.6418   11.4074 C   0  0  0  0  0  0  0  0  0  0  0  0
   -0.9906    4.5499   10.4053 C   0  0  0  0  0  0  0  0  0  0  0  0
   -2.1748    4.4592    9.7207 C   0  0  0  0  0  0  0  0  0  0  0  0
   -3.1139    3.4892   10.0001 C   0  0  0  0  0  0  0  0  0  0  0  0
   -2.8238    2.5879   11.0134 C   0  0  0  0  0  0  0  0  0  0  0  0
   -2.4042    5.3724    8.7358 F   0  0  0  0  0  0  0  0  0  0  0  0
  1  2  1  0
  2  3  1  0
  3  4  1  0
  4  5  1  0
  5  6  1  0
  6  7  2  0
  7  8  1  0
  7  9  1  0
  9 10  2  0
 10 11  1  0
 11 12  2  0
 12 13  1  0
 13 14  2  0
 14 15  1  0
 15 16  1  0
 16 17  1  0
 17 18  2  0
 17 19  1  0
  2 20  1  0
 20 21  2  0
 20 22  2  0
 20 23  1  0
 23 24  2  0
 24 25  1  0
 25 26  2  0
 26 27  1  0
 27 28  2  0
 26 29  1  0
  8  3  1  0
 15  6  1  0
 14  9  1  0
 28 23  1  0
M  END
$$$$
