
     RDKit          3D

 29 32  0  0  0  0  0  0  0  0999 V2000
    0.4171   -0.7373   12.5504 C   0  0  0  0  0  0  0  0  0  0  0  0
   -0.9218   -1.1691   12.7918 N   0  0  0  0  0  0  0  0  0  0  0  0
   -1.4627   -2.0219   11.7571 C   0  0  0  0  0  0  0  0  0  0  0  0
   -1.5375   -3.4198   12.2796 C   0  0  0  0  0  0  0  0  0  0  0  0
   -1.2210   -4.4724   11.2348 C   0  0  0  0  0  0  0  0  0  0  0  0
    0.0516   -4.1640   10.5553 C   0  0  0  0  0  0  0  0  0  0  0  0
    0.2645   -2.8617   10.1621 C   0  0  0  0  0  0  0  0  0  0  0  0
   -0.7900   -1.8587   10.4402 C   0  0  0  0  0  0  0  0  0  0  0  0
    1.5037   -2.8294    9.5622 C   0  0  0  0  0  0  0  0  0  0  0  0
    2.1823   -1.7709    9.0009 C   0  0  0  0  0  0  0  0  0  0  0  0
    3.4431   -1.9725    8.4430 C   0  0  0  0  0  0  0  0  0  0  0  0
    3.9556   -3.2444    8.4823 C   0  0  0  0  0  0  0  0  0  0  0  0
    3.2758   -4.3095    9.0457 C   0  0  0  0  0  0  0  0  0  0  0  0
    2.0299   -4.1113    9.5972 C   0  0  0  0  0  0  0  0  0  0  0  0
    1.1124   -4.9104   10.2148 N   0  0  0  0  0  0  0  0  0  0  0  0
    1.3143   -6.3260   10.4348 C   0  0  0  0  0  0  0  0  0  0  0  0
    0.8761   -7.1185    9.2655 C   0  0  0  0  0  0  0  0  0  0  0  0
   -0.1837   -6.8894    8.6318 O   0  0  0  0  0  0  0  0  0  0  0  0
    1.6668   -8.1651    8.8431 O   0  0  0  0  0  0  0  0  0  0  0  0
   -1.9696    0.0735   13.2818 S   0  0  0  0  0  6  0  0  0  0  0  0
   -3.1227   -0.5664   14.0397 O   0  0  0  0  0  0  0  0  0  0  0  0
   -1.2406    1.0010   14.2034 O   0  0  0  0  0  0  0  0  0  0  0  0
   -2.5502    0.9549   11.8884 C   0  0  0  0  0  0  0  0  0  0  0  0
   -3.7087    0.6055   11.2348 C   0  0  0  0  0  0  0  0  0  0  0  0
   -4.1297    1.3283   10.1400 C   0  0  0  0  0  0  0  0  0  0  0  0
   -3.3775    2.3939    9.7183 C   0  0  0  0  0  0  0  0  0  0  0  0
   -2.2119    2.7688   10.3523 C   0  0  0  0  0  0  0  0  0  0  0  0
   -1.8112    2.0243   11.4515 C   0  0  0  0  0  0  0  0  0  0  0  0
   -3.8215    3.0876    8.6329 F   0  0  0  0  0  0  0  0  0  0  0  0
  1  2  1  0
  2  3  1  0
  3  4  1  0
  4  5  1  0
  5  6  1  0
  6  7  2  0
  7  8  1  0
  7  9  1  0
  9 10  2  0
 10 11  1  0
 11 12  2  0
 12 13  1  0
 13 14  2  0
 14 15  1  0
 15 16  1  0
 16 17  1  0
 17 18  2  0
 17 19  1  0
  2 20  1  0
 20 21  2  0
 20 22  2  0
 20 23  1  0
 23 24  2  0
 24 25  1  0
 25 26  2  0
 26 27  1  0
 27 28  2  0
 26 29  1  0
  8  3  1  0
 15  6  1  0
 14  9  1  0
 28 23  1  0
M  END
$$$$
