
     RDKit          3D

 29 32  0  0  0  0  0  0  0  0999 V2000
   -0.9824   -1.7400    9.8698 C   0  0  0  0  0  0  0  0  0  0  0  0
   -0.3886   -3.0181   10.0966 N   0  0  0  0  0  0  0  0  0  0  0  0
    0.9696   -2.9591   10.5888 C   0  0  0  0  0  0  0  0  0  0  0  0
    1.1423   -4.0032   11.6436 C   0  0  0  0  0  0  0  0  0  0  0  0
    2.0407   -3.5660   12.7843 C   0  0  0  0  0  0  0  0  0  0  0  0
    1.6093   -2.2583   13.3138 C   0  0  0  0  0  0  0  0  0  0  0  0
    1.2936   -1.2751   12.4030 C   0  0  0  0  0  0  0  0  0  0  0  0
    1.4086   -1.5866   10.9591 C   0  0  0  0  0  0  0  0  0  0  0  0
    0.9243   -0.1669   13.1326 C   0  0  0  0  0  0  0  0  0  0  0  0
    0.5196    1.0762   12.7005 C   0  0  0  0  0  0  0  0  0  0  0  0
    0.1896    2.0603   13.6302 C   0  0  0  0  0  0  0  0  0  0  0  0
    0.2870    1.7329   14.9587 C   0  0  0  0  0  0  0  0  0  0  0  0
    0.6933    0.4846   15.3954 C   0  0  0  0  0  0  0  0  0  0  0  0
    1.0197   -0.4885   14.4776 C   0  0  0  0  0  0  0  0  0  0  0  0
    1.4439   -1.7829   14.5568 N   0  0  0  0  0  0  0  0  0  0  0  0
    1.6602   -2.4711   15.8108 C   0  0  0  0  0  0  0  0  0  0  0  0
    0.5018   -3.3201   16.1638 C   0  0  0  0  0  0  0  0  0  0  0  0
    0.3753   -4.5109   15.7852 O   0  0  0  0  0  0  0  0  0  0  0  0
   -0.4954   -2.7836   16.9491 O   0  0  0  0  0  0  0  0  0  0  0  0
   -0.6163   -4.1199    8.8253 S   0  0  0  0  0  6  0  0  0  0  0  0
   -0.7320   -5.5094    9.4333 O   0  0  0  0  0  0  0  0  0  0  0  0
   -1.8923   -3.7962    8.1124 O   0  0  0  0  0  0  0  0  0  0  0  0
    0.7261   -4.0358    7.7090 C   0  0  0  0  0  0  0  0  0  0  0  0
    0.6302   -3.3873    6.5000 C   0  0  0  0  0  0  0  0  0  0  0  0
    1.7138   -3.3455    5.6501 C   0  0  0  0  0  0  0  0  0  0  0  0
    2.8800   -3.9578    6.0298 C   0  0  0  0  0  0  0  0  0  0  0  0
    3.0073   -4.6156    7.2349 C   0  0  0  0  0  0  0  0  0  0  0  0
    1.9014   -4.6426    8.0713 C   0  0  0  0  0  0  0  0  0  0  0  0
    3.9325   -3.8981    5.1667 F   0  0  0  0  0  0  0  0  0  0  0  0
  1  2  1  0
  2  3  1  0
  3  4  1  0
  4  5  1  0
  5  6  1  0
  6  7  2  0
  7  8  1  0
  7  9  1  0
  9 10  2  0
 10 11  1  0
 11 12  2  0
 12 13  1  0
 13 14  2  0
 14 15  1  0
 15 16  1  0
 16 17  1  0
 17 18  2  0
 17 19  1  0
  2 20  1  0
 20 21  2  0
 20 22  2  0
 20 23  1  0
 23 24  2  0
 24 25  1  0
 25 26  2  0
 26 27  1  0
 27 28  2  0
 26 29  1  0
  8  3  1  0
 15  6  1  0
 14  9  1  0
 28 23  1  0
M  END
$$$$
