
     RDKit          3D

 29 32  0  0  0  0  0  0  0  0999 V2000
   -2.7312    2.0866   11.7347 C   0  0  0  0  0  0  0  0  0  0  0  0
   -1.3537    2.1506   12.1031 N   0  0  0  0  0  0  0  0  0  0  0  0
   -0.9189    1.0652   12.9535 C   0  0  0  0  0  0  0  0  0  0  0  0
    0.2801    0.4230   12.3348 C   0  0  0  0  0  0  0  0  0  0  0  0
    0.3213   -1.0817   12.5186 C   0  0  0  0  0  0  0  0  0  0  0  0
   -0.9557   -1.6913   12.1014 C   0  0  0  0  0  0  0  0  0  0  0  0
   -2.1184   -1.0796   12.5135 C   0  0  0  0  0  0  0  0  0  0  0  0
   -2.0170    0.1414   13.3466 C   0  0  0  0  0  0  0  0  0  0  0  0
   -3.1576   -1.8250   12.0026 C   0  0  0  0  0  0  0  0  0  0  0  0
   -4.5165   -1.6394   12.1241 C   0  0  0  0  0  0  0  0  0  0  0  0
   -5.3959   -2.5317   11.5140 C   0  0  0  0  0  0  0  0  0  0  0  0
   -4.8503   -3.5732   10.8074 C   0  0  0  0  0  0  0  0  0  0  0  0
   -3.4853   -3.7619   10.6839 C   0  0  0  0  0  0  0  0  0  0  0  0
   -2.6156   -2.8808   11.2863 C   0  0  0  0  0  0  0  0  0  0  0  0
   -1.2579   -2.7711   11.3657 N   0  0  0  0  0  0  0  0  0  0  0  0
   -0.3489   -3.7032   10.7349 C   0  0  0  0  0  0  0  0  0  0  0  0
    0.0817   -4.7559   11.6803 C   0  0  0  0  0  0  0  0  0  0  0  0
    0.7478   -4.5230   12.7192 O   0  0  0  0  0  0  0  0  0  0  0  0
   -0.2621   -6.0636   11.4142 O   0  0  0  0  0  0  0  0  0  0  0  0
   -0.8506    3.6847   12.6280 S   0  0  0  0  0  6  0  0  0  0  0  0
    0.5184    3.5268   13.2719 O   0  0  0  0  0  0  0  0  0  0  0  0
   -0.7274    4.5962   11.4469 O   0  0  0  0  0  0  0  0  0  0  0  0
   -2.0047    4.3392   13.7661 C   0  0  0  0  0  0  0  0  0  0  0  0
   -3.0548    5.1321   13.3659 C   0  0  0  0  0  0  0  0  0  0  0  0
   -3.9413    5.6269   14.2972 C   0  0  0  0  0  0  0  0  0  0  0  0
   -3.7581    5.3163   15.6197 C   0  0  0  0  0  0  0  0  0  0  0  0
   -2.7155    4.5243   16.0519 C   0  0  0  0  0  0  0  0  0  0  0  0
   -1.8379    4.0394   15.0939 C   0  0  0  0  0  0  0  0  0  0  0  0
   -4.6523    5.8216   16.5149 F   0  0  0  0  0  0  0  0  0  0  0  0
  1  2  1  0
  2  3  1  0
  3  4  1  0
  4  5  1  0
  5  6  1  0
  6  7  2  0
  7  8  1  0
  7  9  1  0
  9 10  2  0
 10 11  1  0
 11 12  2  0
 12 13  1  0
 13 14  2  0
 14 15  1  0
 15 16  1  0
 16 17  1  0
 17 18  2  0
 17 19  1  0
  2 20  1  0
 20 21  2  0
 20 22  2  0
 20 23  1  0
 23 24  2  0
 24 25  1  0
 25 26  2  0
 26 27  1  0
 27 28  2  0
 26 29  1  0
  8  3  1  0
 15  6  1  0
 14  9  1  0
 28 23  1  0
M  END
$$$$
