
     RDKit          3D

 29 32  0  0  0  0  0  0  0  0999 V2000
    0.5099   -0.3230   10.9181 C   0  0  0  0  0  0  0  0  0  0  0  0
    0.0768   -1.4290   11.7098 N   0  0  0  0  0  0  0  0  0  0  0  0
   -0.5540   -2.4865   10.9519 C   0  0  0  0  0  0  0  0  0  0  0  0
   -0.4941   -3.7485   11.7497 C   0  0  0  0  0  0  0  0  0  0  0  0
   -0.2677   -4.9869   10.9044 C   0  0  0  0  0  0  0  0  0  0  0  0
    0.8892   -4.8001   10.0083 C   0  0  0  0  0  0  0  0  0  0  0  0
    0.9876   -3.6025    9.3361 C   0  0  0  0  0  0  0  0  0  0  0  0
   -0.0675   -2.5843    9.5493 C   0  0  0  0  0  0  0  0  0  0  0  0
    2.1349   -3.6702    8.5774 C   0  0  0  0  0  0  0  0  0  0  0  0
    2.6839   -2.7366    7.7270 C   0  0  0  0  0  0  0  0  0  0  0  0
    3.8690   -3.0242    7.0531 C   0  0  0  0  0  0  0  0  0  0  0  0
    4.4414   -4.2507    7.2763 C   0  0  0  0  0  0  0  0  0  0  0  0
    3.8918   -5.1904    8.1301 C   0  0  0  0  0  0  0  0  0  0  0  0
    2.7208   -4.9072    8.7965 C   0  0  0  0  0  0  0  0  0  0  0  0
    1.9304   -5.5800    9.6822 N   0  0  0  0  0  0  0  0  0  0  0  0
    2.2255   -6.9160   10.1522 C   0  0  0  0  0  0  0  0  0  0  0  0
    1.4035   -7.9255    9.4504 C   0  0  0  0  0  0  0  0  0  0  0  0
    1.3674   -8.0413    8.2003 O   0  0  0  0  0  0  0  0  0  0  0  0
    0.6338   -8.7880   10.2004 O   0  0  0  0  0  0  0  0  0  0  0  0
   -0.7695   -0.9839   13.1125 S   0  0  0  0  0  6  0  0  0  0  0  0
   -0.3642   -1.9436   14.2208 O   0  0  0  0  0  0  0  0  0  0  0  0
   -0.3762    0.4054   13.5079 O   0  0  0  0  0  0  0  0  0  0  0  0
   -2.4920   -1.0545   12.8234 C   0  0  0  0  0  0  0  0  0  0  0  0
   -3.2003    0.0324   12.3669 C   0  0  0  0  0  0  0  0  0  0  0  0
   -4.5576   -0.0676   12.1526 C   0  0  0  0  0  0  0  0  0  0  0  0
   -5.1834   -1.2617   12.4011 C   0  0  0  0  0  0  0  0  0  0  0  0
   -4.5009   -2.3688   12.8591 C   0  0  0  0  0  0  0  0  0  0  0  0
   -3.1357   -2.2408   13.0664 C   0  0  0  0  0  0  0  0  0  0  0  0
   -6.5260   -1.3272   12.1790 F   0  0  0  0  0  0  0  0  0  0  0  0
  1  2  1  0
  2  3  1  0
  3  4  1  0
  4  5  1  0
  5  6  1  0
  6  7  2  0
  7  8  1  0
  7  9  1  0
  9 10  2  0
 10 11  1  0
 11 12  2  0
 12 13  1  0
 13 14  2  0
 14 15  1  0
 15 16  1  0
 16 17  1  0
 17 18  2  0
 17 19  1  0
  2 20  1  0
 20 21  2  0
 20 22  2  0
 20 23  1  0
 23 24  2  0
 24 25  1  0
 25 26  2  0
 26 27  1  0
 27 28  2  0
 26 29  1  0
  8  3  1  0
 15  6  1  0
 14  9  1  0
 28 23  1  0
M  END
$$$$
