
     RDKit          3D

 25 28  0  0  0  0  0  0  0  0999 V2000
    1.9413    0.6050    6.0561 C   0  0  0  0  0  0  0  0  0  0  0  0
    3.1256    0.2144    6.6478 C   0  0  0  0  0  0  0  0  0  0  0  0
    3.3346    0.9603    7.7020 O   0  0  0  0  0  0  0  0  0  0  0  0
    2.3882    1.8317    7.8810 C   0  0  0  0  0  0  0  0  0  0  0  0
    1.4760    1.6422    6.8538 C   0  0  0  0  0  0  0  0  0  0  0  0
    2.2541    2.8418    8.9399 C   0  0  0  0  0  0  0  0  0  0  0  0
    3.0092    2.9059   10.0592 N   0  0  0  0  0  0  0  0  0  0  0  0
    2.5981    3.9429   10.7697 N   0  0  0  0  0  0  0  0  0  0  0  0
    3.0636    4.3943   11.9669 C   0  0  0  0  0  0  0  0  0  0  0  0
    2.4665    5.4752   12.4750 N   0  0  0  0  0  0  0  0  0  0  0  0
    1.4552    6.1300   11.8879 C   0  0  0  0  0  0  0  0  0  0  0  0
    1.0257    5.6375   10.6897 N   0  0  0  0  0  0  0  0  0  0  0  0
    1.5905    4.5589   10.1398 C   0  0  0  0  0  0  0  0  0  0  0  0
    1.3967    3.8487    8.9985 N   0  0  0  0  0  0  0  0  0  0  0  0
    0.8460    7.2791   12.4633 N   0  0  0  0  0  0  0  0  0  0  0  0
    1.3508    7.7570   13.7142 C   0  0  0  0  0  0  0  0  0  0  0  0
    2.6272    8.5286   13.6015 C   0  0  0  0  0  0  0  0  0  0  0  0
    3.2233    8.7388   14.9298 C   0  0  0  0  0  0  0  0  0  0  0  0
    4.4972    9.2824   15.0444 C   0  0  0  0  0  0  0  0  0  0  0  0
    5.0857    9.4756   16.2828 C   0  0  0  0  0  0  0  0  0  0  0  0
    4.4131    9.1282   17.4550 C   0  0  0  0  0  0  0  0  0  0  0  0
    3.1524    8.5905   17.3314 C   0  0  0  0  0  0  0  0  0  0  0  0
    2.5634    8.3976   16.0779 C   0  0  0  0  0  0  0  0  0  0  0  0
    5.0055    9.3231   18.6976 O   0  0  0  0  0  0  0  0  0  0  0  0
    4.1342    3.7342   12.6291 N   0  0  0  0  0  0  0  0  0  0  0  0
  1  2  2  0
  2  3  1  0
  3  4  1  0
  4  5  2  0
  4  6  1  0
  6  7  2  0
  7  8  1  0
  8  9  1  0
  9 10  2  0
 10 11  1  0
 11 12  2  0
 12 13  1  0
 13 14  2  0
 11 15  1  0
 15 16  1  0
 16 17  1  0
 17 18  1  0
 18 19  2  0
 19 20  1  0
 20 21  2  0
 21 22  1  0
 22 23  2  0
 21 24  1  0
  9 25  1  0
  5  1  1  0
 14  6  1  0
 13  8  1  0
 23 18  1  0
M  END
$$$$
