
     RDKit          3D

 25 28  0  0  0  0  0  0  0  0999 V2000
    2.2699   -0.4345    7.3040 C   0  0  0  0  0  0  0  0  0  0  0  0
    1.1156    0.0865    6.7550 C   0  0  0  0  0  0  0  0  0  0  0  0
    0.7996    1.1796    7.4005 O   0  0  0  0  0  0  0  0  0  0  0  0
    1.6449    1.4503    8.3487 C   0  0  0  0  0  0  0  0  0  0  0  0
    2.6015    0.4466    8.3249 C   0  0  0  0  0  0  0  0  0  0  0  0
    1.6424    2.5781    9.2909 C   0  0  0  0  0  0  0  0  0  0  0  0
    2.4498    2.6984   10.3683 N   0  0  0  0  0  0  0  0  0  0  0  0
    2.1581    3.8388   10.9712 N   0  0  0  0  0  0  0  0  0  0  0  0
    2.7127    4.3763   12.0926 C   0  0  0  0  0  0  0  0  0  0  0  0
    2.2303    5.5542   12.4962 N   0  0  0  0  0  0  0  0  0  0  0  0
    1.2512    6.2263   11.8752 C   0  0  0  0  0  0  0  0  0  0  0  0
    0.7290    5.6448   10.7563 N   0  0  0  0  0  0  0  0  0  0  0  0
    1.1775    4.4675   10.3120 C   0  0  0  0  0  0  0  0  0  0  0  0
    0.8746    3.6562    9.2657 N   0  0  0  0  0  0  0  0  0  0  0  0
    0.7654    7.4801   12.3384 N   0  0  0  0  0  0  0  0  0  0  0  0
    1.4259    8.0919   13.4508 C   0  0  0  0  0  0  0  0  0  0  0  0
    0.9182    7.6416   14.7838 C   0  0  0  0  0  0  0  0  0  0  0  0
    1.8948    7.9499   15.8399 C   0  0  0  0  0  0  0  0  0  0  0  0
    1.6082    7.6450   17.1653 C   0  0  0  0  0  0  0  0  0  0  0  0
    2.5046    7.9393   18.1788 C   0  0  0  0  0  0  0  0  0  0  0  0
    3.7256    8.5528   17.8963 C   0  0  0  0  0  0  0  0  0  0  0  0
    4.0003    8.8511   16.5812 C   0  0  0  0  0  0  0  0  0  0  0  0
    3.0910    8.5515   15.5621 C   0  0  0  0  0  0  0  0  0  0  0  0
    4.6244    8.8474   18.9153 O   0  0  0  0  0  0  0  0  0  0  0  0
    3.7538    3.7020   12.7866 N   0  0  0  0  0  0  0  0  0  0  0  0
  1  2  2  0
  2  3  1  0
  3  4  1  0
  4  5  2  0
  4  6  1  0
  6  7  2  0
  7  8  1  0
  8  9  1  0
  9 10  2  0
 10 11  1  0
 11 12  2  0
 12 13  1  0
 13 14  2  0
 11 15  1  0
 15 16  1  0
 16 17  1  0
 17 18  1  0
 18 19  2  0
 19 20  1  0
 20 21  2  0
 21 22  1  0
 22 23  2  0
 21 24  1  0
  9 25  1  0
  5  1  1  0
 14  6  1  0
 13  8  1  0
 23 18  1  0
M  END
$$$$
