
     RDKit          3D

 25 28  0  0  0  0  0  0  0  0999 V2000
    1.5626   -0.0256    6.8376 C   0  0  0  0  0  0  0  0  0  0  0  0
    2.8279   -0.3006    7.3160 C   0  0  0  0  0  0  0  0  0  0  0  0
    3.1240    0.5706    8.2459 O   0  0  0  0  0  0  0  0  0  0  0  0
    2.1628    1.4216    8.4439 C   0  0  0  0  0  0  0  0  0  0  0  0
    1.1446    1.0799    7.5667 C   0  0  0  0  0  0  0  0  0  0  0  0
    2.1059    2.5429    9.3920 C   0  0  0  0  0  0  0  0  0  0  0  0
    2.9723    2.7521   10.4083 N   0  0  0  0  0  0  0  0  0  0  0  0
    2.6024    3.8539   11.0393 N   0  0  0  0  0  0  0  0  0  0  0  0
    3.1756    4.4500   12.1210 C   0  0  0  0  0  0  0  0  0  0  0  0
    2.5978    5.5679   12.5675 N   0  0  0  0  0  0  0  0  0  0  0  0
    1.5078    6.1278   12.0249 C   0  0  0  0  0  0  0  0  0  0  0  0
    0.9717    5.4916   10.9430 N   0  0  0  0  0  0  0  0  0  0  0  0
    1.5128    4.3704   10.4584 C   0  0  0  0  0  0  0  0  0  0  0  0
    1.2246    3.5300    9.4311 N   0  0  0  0  0  0  0  0  0  0  0  0
    0.9227    7.3209   12.5317 N   0  0  0  0  0  0  0  0  0  0  0  0
    1.6177    8.0297   13.5625 C   0  0  0  0  0  0  0  0  0  0  0  0
    1.8366    7.2326   14.8091 C   0  0  0  0  0  0  0  0  0  0  0  0
    2.6077    8.0102   15.7912 C   0  0  0  0  0  0  0  0  0  0  0  0
    2.9429    7.4483   17.0174 C   0  0  0  0  0  0  0  0  0  0  0  0
    3.6547    8.1654   17.9642 C   0  0  0  0  0  0  0  0  0  0  0  0
    4.0569    9.4776   17.7123 C   0  0  0  0  0  0  0  0  0  0  0  0
    3.7202   10.0254   16.4956 C   0  0  0  0  0  0  0  0  0  0  0  0
    3.0010    9.2963   15.5435 C   0  0  0  0  0  0  0  0  0  0  0  0
    4.7717   10.1960   18.6641 O   0  0  0  0  0  0  0  0  0  0  0  0
    4.3326    3.8949   12.7319 N   0  0  0  0  0  0  0  0  0  0  0  0
  1  2  2  0
  2  3  1  0
  3  4  1  0
  4  5  2  0
  4  6  1  0
  6  7  2  0
  7  8  1  0
  8  9  1  0
  9 10  2  0
 10 11  1  0
 11 12  2  0
 12 13  1  0
 13 14  2  0
 11 15  1  0
 15 16  1  0
 16 17  1  0
 17 18  1  0
 18 19  2  0
 19 20  1  0
 20 21  2  0
 21 22  1  0
 22 23  2  0
 21 24  1  0
  9 25  1  0
  5  1  1  0
 14  6  1  0
 13  8  1  0
 23 18  1  0
M  END
$$$$
