
     RDKit          3D

 25 28  0  0  0  0  0  0  0  0999 V2000
    0.2665    1.6113    6.8205 C   0  0  0  0  0  0  0  0  0  0  0  0
    1.3538    0.7797    6.9979 C   0  0  0  0  0  0  0  0  0  0  0  0
    2.0619    1.2229    8.0047 O   0  0  0  0  0  0  0  0  0  0  0  0
    1.5474    2.2924    8.5323 C   0  0  0  0  0  0  0  0  0  0  0  0
    0.3993    2.5780    7.8087 C   0  0  0  0  0  0  0  0  0  0  0  0
    2.0362    3.0859    9.6685 C   0  0  0  0  0  0  0  0  0  0  0  0
    3.0080    2.7051   10.5274 N   0  0  0  0  0  0  0  0  0  0  0  0
    3.1731    3.6741   11.4122 N   0  0  0  0  0  0  0  0  0  0  0  0
    4.0390    3.7319   12.4614 C   0  0  0  0  0  0  0  0  0  0  0  0
    4.0032    4.8372   13.2098 N   0  0  0  0  0  0  0  0  0  0  0  0
    3.1814    5.8736   12.9940 C   0  0  0  0  0  0  0  0  0  0  0  0
    2.3333    5.7661   11.9301 N   0  0  0  0  0  0  0  0  0  0  0  0
    2.3306    4.6808   11.1512 C   0  0  0  0  0  0  0  0  0  0  0  0
    1.6320    4.2856   10.0555 N   0  0  0  0  0  0  0  0  0  0  0  0
    3.1749    7.0341   13.8160 N   0  0  0  0  0  0  0  0  0  0  0  0
    1.9709    7.8042   13.8890 C   0  0  0  0  0  0  0  0  0  0  0  0
    1.8479    8.8455   12.8223 C   0  0  0  0  0  0  0  0  0  0  0  0
    0.6342    9.6517   13.0243 C   0  0  0  0  0  0  0  0  0  0  0  0
    0.2993   10.6479   12.1149 C   0  0  0  0  0  0  0  0  0  0  0  0
   -0.8295   11.4301   12.2915 C   0  0  0  0  0  0  0  0  0  0  0  0
   -1.6657   11.2389   13.3921 C   0  0  0  0  0  0  0  0  0  0  0  0
   -1.3258   10.2504   14.2872 C   0  0  0  0  0  0  0  0  0  0  0  0
   -0.1844    9.4639   14.1035 C   0  0  0  0  0  0  0  0  0  0  0  0
   -2.7988   12.0252   13.5676 O   0  0  0  0  0  0  0  0  0  0  0  0
    4.9304    2.6584   12.7316 N   0  0  0  0  0  0  0  0  0  0  0  0
  1  2  2  0
  2  3  1  0
  3  4  1  0
  4  5  2  0
  4  6  1  0
  6  7  2  0
  7  8  1  0
  8  9  1  0
  9 10  2  0
 10 11  1  0
 11 12  2  0
 12 13  1  0
 13 14  2  0
 11 15  1  0
 15 16  1  0
 16 17  1  0
 17 18  1  0
 18 19  2  0
 19 20  1  0
 20 21  2  0
 21 22  1  0
 22 23  2  0
 21 24  1  0
  9 25  1  0
  5  1  1  0
 14  6  1  0
 13  8  1  0
 23 18  1  0
M  END
$$$$
