
     RDKit          3D

 25 28  0  0  0  0  0  0  0  0999 V2000
    1.3961    0.3059    6.8254 C   0  0  0  0  0  0  0  0  0  0  0  0
    2.5854   -0.1103    7.3887 C   0  0  0  0  0  0  0  0  0  0  0  0
    2.9264    0.7376    8.3248 O   0  0  0  0  0  0  0  0  0  0  0  0
    2.0660    1.7026    8.4487 C   0  0  0  0  0  0  0  0  0  0  0  0
    1.0710    1.4688    7.5115 C   0  0  0  0  0  0  0  0  0  0  0  0
    2.0867    2.8419    9.3767 C   0  0  0  0  0  0  0  0  0  0  0  0
    2.9176    2.9733   10.4348 N   0  0  0  0  0  0  0  0  0  0  0  0
    2.6419    4.1218   11.0297 N   0  0  0  0  0  0  0  0  0  0  0  0
    3.2221    4.6716   12.1320 C   0  0  0  0  0  0  0  0  0  0  0  0
    2.7515    5.8556   12.5314 N   0  0  0  0  0  0  0  0  0  0  0  0
    1.7608    6.5228   11.9235 C   0  0  0  0  0  0  0  0  0  0  0  0
    1.2130    5.9290   10.8234 N   0  0  0  0  0  0  0  0  0  0  0  0
    1.6488    4.7451   10.3842 C   0  0  0  0  0  0  0  0  0  0  0  0
    1.3213    3.9218    9.3548 N   0  0  0  0  0  0  0  0  0  0  0  0
    1.2883    7.7836   12.3816 N   0  0  0  0  0  0  0  0  0  0  0  0
    1.4247    8.0920   13.7723 C   0  0  0  0  0  0  0  0  0  0  0  0
    2.7616    8.6502   14.1445 C   0  0  0  0  0  0  0  0  0  0  0  0
    2.9478    8.6169   15.6033 C   0  0  0  0  0  0  0  0  0  0  0  0
    4.1760    8.9575   16.1575 C   0  0  0  0  0  0  0  0  0  0  0  0
    4.3804    8.9191   17.5265 C   0  0  0  0  0  0  0  0  0  0  0  0
    3.3545    8.5357   18.3911 C   0  0  0  0  0  0  0  0  0  0  0  0
    2.1421    8.2000   17.8331 C   0  0  0  0  0  0  0  0  0  0  0  0
    1.9419    8.2406   16.4498 C   0  0  0  0  0  0  0  0  0  0  0  0
    3.5616    8.4979   19.7654 O   0  0  0  0  0  0  0  0  0  0  0  0
    4.2762    4.0030   12.8117 N   0  0  0  0  0  0  0  0  0  0  0  0
  1  2  2  0
  2  3  1  0
  3  4  1  0
  4  5  2  0
  4  6  1  0
  6  7  2  0
  7  8  1  0
  8  9  1  0
  9 10  2  0
 10 11  1  0
 11 12  2  0
 12 13  1  0
 13 14  2  0
 11 15  1  0
 15 16  1  0
 16 17  1  0
 17 18  1  0
 18 19  2  0
 19 20  1  0
 20 21  2  0
 21 22  1  0
 22 23  2  0
 21 24  1  0
  9 25  1  0
  5  1  1  0
 14  6  1  0
 13  8  1  0
 23 18  1  0
M  END
$$$$
