
     RDKit          3D

 25 28  0  0  0  0  0  0  0  0999 V2000
    1.6698    0.4445    6.3492 C   0  0  0  0  0  0  0  0  0  0  0  0
    2.8577    0.0407    6.9247 C   0  0  0  0  0  0  0  0  0  0  0  0
    3.1307    0.8360    7.9268 O   0  0  0  0  0  0  0  0  0  0  0  0
    2.2250    1.7535    8.0850 C   0  0  0  0  0  0  0  0  0  0  0  0
    1.2720    1.5431    7.0999 C   0  0  0  0  0  0  0  0  0  0  0  0
    2.1658    2.8264    9.0873 C   0  0  0  0  0  0  0  0  0  0  0  0
    2.9107    2.8860   10.2137 N   0  0  0  0  0  0  0  0  0  0  0  0
    2.5818    3.9906   10.8623 N   0  0  0  0  0  0  0  0  0  0  0  0
    3.0705    4.4642   12.0416 C   0  0  0  0  0  0  0  0  0  0  0  0
    2.5623    5.6175   12.4829 N   0  0  0  0  0  0  0  0  0  0  0  0
    1.6177    6.3235   11.8463 C   0  0  0  0  0  0  0  0  0  0  0  0
    1.1613    5.8059   10.6688 N   0  0  0  0  0  0  0  0  0  0  0  0
    1.6379    4.6554   10.1851 C   0  0  0  0  0  0  0  0  0  0  0  0
    1.3972    3.9043    9.0794 N   0  0  0  0  0  0  0  0  0  0  0  0
    1.1025    7.5492   12.3510 N   0  0  0  0  0  0  0  0  0  0  0  0
    0.6853    7.5949   13.7191 C   0  0  0  0  0  0  0  0  0  0  0  0
    1.5872    6.8561   14.6563 C   0  0  0  0  0  0  0  0  0  0  0  0
    2.5053    7.7864   15.3312 C   0  0  0  0  0  0  0  0  0  0  0  0
    3.6454    7.3049   15.9637 C   0  0  0  0  0  0  0  0  0  0  0  0
    4.5167    8.1588   16.6189 C   0  0  0  0  0  0  0  0  0  0  0  0
    4.2730    9.5320   16.6623 C   0  0  0  0  0  0  0  0  0  0  0  0
    3.1416    9.9993   16.0334 C   0  0  0  0  0  0  0  0  0  0  0  0
    2.2654    9.1320   15.3736 C   0  0  0  0  0  0  0  0  0  0  0  0
    5.1491   10.3878   17.3204 O   0  0  0  0  0  0  0  0  0  0  0  0
    4.0729    3.7520   12.7544 N   0  0  0  0  0  0  0  0  0  0  0  0
  1  2  2  0
  2  3  1  0
  3  4  1  0
  4  5  2  0
  4  6  1  0
  6  7  2  0
  7  8  1  0
  8  9  1  0
  9 10  2  0
 10 11  1  0
 11 12  2  0
 12 13  1  0
 13 14  2  0
 11 15  1  0
 15 16  1  0
 16 17  1  0
 17 18  1  0
 18 19  2  0
 19 20  1  0
 20 21  2  0
 21 22  1  0
 22 23  2  0
 21 24  1  0
  9 25  1  0
  5  1  1  0
 14  6  1  0
 13  8  1  0
 23 18  1  0
M  END
$$$$
