
     RDKit          3D

 25 28  0  0  0  0  0  0  0  0999 V2000
    2.5178    0.6079    5.9803 C   0  0  0  0  0  0  0  0  0  0  0  0
    3.6833    0.3129    6.6583 C   0  0  0  0  0  0  0  0  0  0  0  0
    3.7662    1.0885    7.7085 O   0  0  0  0  0  0  0  0  0  0  0  0
    2.7506    1.8923    7.8053 C   0  0  0  0  0  0  0  0  0  0  0  0
    1.9268    1.6215    6.7232 C   0  0  0  0  0  0  0  0  0  0  0  0
    2.4731    2.9069    8.8316 C   0  0  0  0  0  0  0  0  0  0  0  0
    3.1289    3.0292   10.0073 N   0  0  0  0  0  0  0  0  0  0  0  0
    2.6029    4.0500   10.6633 N   0  0  0  0  0  0  0  0  0  0  0  0
    2.9423    4.5433   11.8862 C   0  0  0  0  0  0  0  0  0  0  0  0
    2.2454    5.5945   12.3247 N   0  0  0  0  0  0  0  0  0  0  0  0
    1.2504    6.1821   11.6457 C   0  0  0  0  0  0  0  0  0  0  0  0
    0.9493    5.6498   10.4256 N   0  0  0  0  0  0  0  0  0  0  0  0
    1.6173    4.5985    9.9428 C   0  0  0  0  0  0  0  0  0  0  0  0
    1.5584    3.8634    8.8023 N   0  0  0  0  0  0  0  0  0  0  0  0
    0.5321    7.3015   12.1491 N   0  0  0  0  0  0  0  0  0  0  0  0
    0.8960    7.8162   13.4339 C   0  0  0  0  0  0  0  0  0  0  0  0
    2.0122    8.8112   13.3980 C   0  0  0  0  0  0  0  0  0  0  0  0
    2.7435    8.8141   14.6743 C   0  0  0  0  0  0  0  0  0  0  0  0
    3.9890    9.4243   14.7631 C   0  0  0  0  0  0  0  0  0  0  0  0
    4.7035    9.4268   15.9492 C   0  0  0  0  0  0  0  0  0  0  0  0
    4.1904    8.8140   17.0931 C   0  0  0  0  0  0  0  0  0  0  0  0
    2.9567    8.2123   16.9954 C   0  0  0  0  0  0  0  0  0  0  0  0
    2.2400    8.2129   15.7947 C   0  0  0  0  0  0  0  0  0  0  0  0
    4.9092    8.8178   18.2832 O   0  0  0  0  0  0  0  0  0  0  0  0
    3.9903    3.9549   12.6449 N   0  0  0  0  0  0  0  0  0  0  0  0
  1  2  2  0
  2  3  1  0
  3  4  1  0
  4  5  2  0
  4  6  1  0
  6  7  2  0
  7  8  1  0
  8  9  1  0
  9 10  2  0
 10 11  1  0
 11 12  2  0
 12 13  1  0
 13 14  2  0
 11 15  1  0
 15 16  1  0
 16 17  1  0
 17 18  1  0
 18 19  2  0
 19 20  1  0
 20 21  2  0
 21 22  1  0
 22 23  2  0
 21 24  1  0
  9 25  1  0
  5  1  1  0
 14  6  1  0
 13  8  1  0
 23 18  1  0
M  END
$$$$
