
     RDKit          3D

 25 28  0  0  0  0  0  0  0  0999 V2000
    2.3102    0.3649    6.0702 C   0  0  0  0  0  0  0  0  0  0  0  0
    3.5191    0.0843    6.6746 C   0  0  0  0  0  0  0  0  0  0  0  0
    3.6668    0.8754    7.7060 O   0  0  0  0  0  0  0  0  0  0  0  0
    2.6557    1.6765    7.8577 C   0  0  0  0  0  0  0  0  0  0  0  0
    1.7642    1.3869    6.8358 C   0  0  0  0  0  0  0  0  0  0  0  0
    2.4411    2.7046    8.8855 C   0  0  0  0  0  0  0  0  0  0  0  0
    3.1533    2.8288   10.0277 N   0  0  0  0  0  0  0  0  0  0  0  0
    2.6731    3.8632   10.6974 N   0  0  0  0  0  0  0  0  0  0  0  0
    3.0766    4.3632   11.8978 C   0  0  0  0  0  0  0  0  0  0  0  0
    2.4158    5.4284   12.3579 N   0  0  0  0  0  0  0  0  0  0  0  0
    1.3982    6.0237   11.7206 C   0  0  0  0  0  0  0  0  0  0  0  0
    1.0324    5.4842   10.5214 N   0  0  0  0  0  0  0  0  0  0  0  0
    1.6622    4.4189   10.0185 C   0  0  0  0  0  0  0  0  0  0  0  0
    1.5393    3.6738    8.8896 N   0  0  0  0  0  0  0  0  0  0  0  0
    0.7200    7.1581   12.2458 N   0  0  0  0  0  0  0  0  0  0  0  0
    1.1281    7.6583   13.5229 C   0  0  0  0  0  0  0  0  0  0  0  0
    2.3433    8.5293   13.4763 C   0  0  0  0  0  0  0  0  0  0  0  0
    3.0287    8.5304   14.7779 C   0  0  0  0  0  0  0  0  0  0  0  0
    2.4151    9.0974   15.8887 C   0  0  0  0  0  0  0  0  0  0  0  0
    3.0463    9.1244   17.1208 C   0  0  0  0  0  0  0  0  0  0  0  0
    4.3213    8.5809   17.2820 C   0  0  0  0  0  0  0  0  0  0  0  0
    4.9208    8.0220   16.1765 C   0  0  0  0  0  0  0  0  0  0  0  0
    4.2784    7.9979   14.9348 C   0  0  0  0  0  0  0  0  0  0  0  0
    4.9534    8.6088   18.5200 O   0  0  0  0  0  0  0  0  0  0  0  0
    4.1511    3.7671   12.6123 N   0  0  0  0  0  0  0  0  0  0  0  0
  1  2  2  0
  2  3  1  0
  3  4  1  0
  4  5  2  0
  4  6  1  0
  6  7  2  0
  7  8  1  0
  8  9  1  0
  9 10  2  0
 10 11  1  0
 11 12  2  0
 12 13  1  0
 13 14  2  0
 11 15  1  0
 15 16  1  0
 16 17  1  0
 17 18  1  0
 18 19  2  0
 19 20  1  0
 20 21  2  0
 21 22  1  0
 22 23  2  0
 21 24  1  0
  9 25  1  0
  5  1  1  0
 14  6  1  0
 13  8  1  0
 23 18  1  0
M  END
$$$$
