
     RDKit          3D

 25 28  0  0  0  0  0  0  0  0999 V2000
    1.4520    1.0590    5.7014 C   0  0  0  0  0  0  0  0  0  0  0  0
    0.2788    0.7725    6.3700 C   0  0  0  0  0  0  0  0  0  0  0  0
    0.2830    1.4046    7.5154 O   0  0  0  0  0  0  0  0  0  0  0  0
    1.3653    2.1020    7.6862 C   0  0  0  0  0  0  0  0  0  0  0  0
    2.1418    1.9119    6.5530 C   0  0  0  0  0  0  0  0  0  0  0  0
    1.7484    2.9436    8.8283 C   0  0  0  0  0  0  0  0  0  0  0  0
    0.9489    3.2548    9.8730 N   0  0  0  0  0  0  0  0  0  0  0  0
    1.6371    4.0265   10.6975 N   0  0  0  0  0  0  0  0  0  0  0  0
    1.2414    4.5800   11.8769 C   0  0  0  0  0  0  0  0  0  0  0  0
    2.1407    5.3275   12.5215 N   0  0  0  0  0  0  0  0  0  0  0  0
    3.3862    5.5611   12.0853 C   0  0  0  0  0  0  0  0  0  0  0  0
    3.7333    4.9837   10.8983 N   0  0  0  0  0  0  0  0  0  0  0  0
    2.8695    4.2273   10.2154 C   0  0  0  0  0  0  0  0  0  0  0  0
    2.9109    3.5383    9.0457 N   0  0  0  0  0  0  0  0  0  0  0  0
    4.3145    6.3644   12.8032 N   0  0  0  0  0  0  0  0  0  0  0  0
    3.9465    6.8194   14.1091 C   0  0  0  0  0  0  0  0  0  0  0  0
    3.1744    8.1005   14.1129 C   0  0  0  0  0  0  0  0  0  0  0  0
    2.9049    8.5376   15.4914 C   0  0  0  0  0  0  0  0  0  0  0  0
    1.7911    8.0573   16.1700 C   0  0  0  0  0  0  0  0  0  0  0  0
    1.5077    8.4656   17.4624 C   0  0  0  0  0  0  0  0  0  0  0  0
    2.3360    9.3744   18.1220 C   0  0  0  0  0  0  0  0  0  0  0  0
    3.4361    9.8446   17.4419 C   0  0  0  0  0  0  0  0  0  0  0  0
    3.7170    9.4286   16.1368 C   0  0  0  0  0  0  0  0  0  0  0  0
    2.0499    9.7831   19.4197 O   0  0  0  0  0  0  0  0  0  0  0  0
   -0.0692    4.3618   12.3817 N   0  0  0  0  0  0  0  0  0  0  0  0
  1  2  2  0
  2  3  1  0
  3  4  1  0
  4  5  2  0
  4  6  1  0
  6  7  2  0
  7  8  1  0
  8  9  1  0
  9 10  2  0
 10 11  1  0
 11 12  2  0
 12 13  1  0
 13 14  2  0
 11 15  1  0
 15 16  1  0
 16 17  1  0
 17 18  1  0
 18 19  2  0
 19 20  1  0
 20 21  2  0
 21 22  1  0
 22 23  2  0
 21 24  1  0
  9 25  1  0
  5  1  1  0
 14  6  1  0
 13  8  1  0
 23 18  1  0
M  END
$$$$
