
     RDKit          3D

 25 28  0  0  0  0  0  0  0  0999 V2000
    2.7077   -0.1712    7.1357 C   0  0  0  0  0  0  0  0  0  0  0  0
    1.6169    0.4089    6.5202 C   0  0  0  0  0  0  0  0  0  0  0  0
    1.3039    1.5037    7.1643 O   0  0  0  0  0  0  0  0  0  0  0  0
    2.0930    1.7212    8.1729 C   0  0  0  0  0  0  0  0  0  0  0  0
    3.0056    0.6773    8.1940 C   0  0  0  0  0  0  0  0  0  0  0  0
    2.0737    2.8320    9.1349 C   0  0  0  0  0  0  0  0  0  0  0  0
    2.8350    2.9147   10.2488 N   0  0  0  0  0  0  0  0  0  0  0  0
    2.5422    4.0506   10.8595 N   0  0  0  0  0  0  0  0  0  0  0  0
    3.0583    4.5554   12.0139 C   0  0  0  0  0  0  0  0  0  0  0  0
    2.5846    5.7367   12.4179 N   0  0  0  0  0  0  0  0  0  0  0  0
    1.6490    6.4420   11.7671 C   0  0  0  0  0  0  0  0  0  0  0  0
    1.1643    5.8925   10.6157 N   0  0  0  0  0  0  0  0  0  0  0  0
    1.6058    4.7132   10.1697 C   0  0  0  0  0  0  0  0  0  0  0  0
    1.3317    3.9277    9.0962 N   0  0  0  0  0  0  0  0  0  0  0  0
    1.1711    7.6982   12.2319 N   0  0  0  0  0  0  0  0  0  0  0  0
    1.7605    8.2509   13.4130 C   0  0  0  0  0  0  0  0  0  0  0  0
    1.1648    7.7416   14.6870 C   0  0  0  0  0  0  0  0  0  0  0  0
    1.9272    8.2308   15.8460 C   0  0  0  0  0  0  0  0  0  0  0  0
    3.2164    7.7666   16.0789 C   0  0  0  0  0  0  0  0  0  0  0  0
    3.9483    8.2004   17.1714 C   0  0  0  0  0  0  0  0  0  0  0  0
    3.4093    9.1194   18.0726 C   0  0  0  0  0  0  0  0  0  0  0  0
    2.1322    9.5730   17.8338 C   0  0  0  0  0  0  0  0  0  0  0  0
    1.3980    9.1311   16.7288 C   0  0  0  0  0  0  0  0  0  0  0  0
    4.1458    9.5538   19.1689 O   0  0  0  0  0  0  0  0  0  0  0  0
    4.0524    3.8453   12.7403 N   0  0  0  0  0  0  0  0  0  0  0  0
  1  2  2  0
  2  3  1  0
  3  4  1  0
  4  5  2  0
  4  6  1  0
  6  7  2  0
  7  8  1  0
  8  9  1  0
  9 10  2  0
 10 11  1  0
 11 12  2  0
 12 13  1  0
 13 14  2  0
 11 15  1  0
 15 16  1  0
 16 17  1  0
 17 18  1  0
 18 19  2  0
 19 20  1  0
 20 21  2  0
 21 22  1  0
 22 23  2  0
 21 24  1  0
  9 25  1  0
  5  1  1  0
 14  6  1  0
 13  8  1  0
 23 18  1  0
M  END
$$$$
