
     RDKit          3D

 25 28  0  0  0  0  0  0  0  0999 V2000
    1.9250    0.0591    6.4778 C   0  0  0  0  0  0  0  0  0  0  0  0
    3.1108   -0.2595    7.1084 C   0  0  0  0  0  0  0  0  0  0  0  0
    3.2751    0.5460    8.1260 O   0  0  0  0  0  0  0  0  0  0  0  0
    2.2968    1.3921    8.2441 C   0  0  0  0  0  0  0  0  0  0  0  0
    1.4105    1.1190    7.2130 C   0  0  0  0  0  0  0  0  0  0  0  0
    2.1093    2.4497    9.2470 C   0  0  0  0  0  0  0  0  0  0  0  0
    2.8364    2.5926   10.3775 N   0  0  0  0  0  0  0  0  0  0  0  0
    2.3794    3.6512   11.0252 N   0  0  0  0  0  0  0  0  0  0  0  0
    2.8041    4.1761   12.2076 C   0  0  0  0  0  0  0  0  0  0  0  0
    2.1645    5.2627   12.6471 N   0  0  0  0  0  0  0  0  0  0  0  0
    1.1485    5.8565   12.0059 C   0  0  0  0  0  0  0  0  0  0  0  0
    0.7609    5.2917   10.8254 N   0  0  0  0  0  0  0  0  0  0  0  0
    1.3690    4.2043   10.3434 C   0  0  0  0  0  0  0  0  0  0  0  0
    1.2221    3.4321    9.2358 N   0  0  0  0  0  0  0  0  0  0  0  0
    0.4933    7.0143   12.5088 N   0  0  0  0  0  0  0  0  0  0  0  0
    0.9468    7.5619   13.7507 C   0  0  0  0  0  0  0  0  0  0  0  0
    2.0938    8.5123   13.6149 C   0  0  0  0  0  0  0  0  0  0  0  0
    2.7624    8.7042   14.9111 C   0  0  0  0  0  0  0  0  0  0  0  0
    2.3519    9.7222   15.7636 C   0  0  0  0  0  0  0  0  0  0  0  0
    2.9755    9.9325   16.9819 C   0  0  0  0  0  0  0  0  0  0  0  0
    4.0379    9.1246   17.3891 C   0  0  0  0  0  0  0  0  0  0  0  0
    4.4373    8.1195   16.5383 C   0  0  0  0  0  0  0  0  0  0  0  0
    3.8037    7.9122   15.3091 C   0  0  0  0  0  0  0  0  0  0  0  0
    4.6626    9.3372   18.6128 O   0  0  0  0  0  0  0  0  0  0  0  0
    3.8778    3.5826   12.9253 N   0  0  0  0  0  0  0  0  0  0  0  0
  1  2  2  0
  2  3  1  0
  3  4  1  0
  4  5  2  0
  4  6  1  0
  6  7  2  0
  7  8  1  0
  8  9  1  0
  9 10  2  0
 10 11  1  0
 11 12  2  0
 12 13  1  0
 13 14  2  0
 11 15  1  0
 15 16  1  0
 16 17  1  0
 17 18  1  0
 18 19  2  0
 19 20  1  0
 20 21  2  0
 21 22  1  0
 22 23  2  0
 21 24  1  0
  9 25  1  0
  5  1  1  0
 14  6  1  0
 13  8  1  0
 23 18  1  0
M  END
$$$$
