
     RDKit          3D

 25 28  0  0  0  0  0  0  0  0999 V2000
    2.8690   -0.1206    6.8107 C   0  0  0  0  0  0  0  0  0  0  0  0
    1.8516    0.5049    6.1186 C   0  0  0  0  0  0  0  0  0  0  0  0
    1.4522    1.5435    6.8064 O   0  0  0  0  0  0  0  0  0  0  0  0
    2.1143    1.6807    7.9154 C   0  0  0  0  0  0  0  0  0  0  0  0
    3.0302    0.6405    7.9611 C   0  0  0  0  0  0  0  0  0  0  0  0
    1.9688    2.7103    8.9539 C   0  0  0  0  0  0  0  0  0  0  0  0
    2.6764    2.7657   10.1043 N   0  0  0  0  0  0  0  0  0  0  0  0
    2.2704    3.8262   10.7822 N   0  0  0  0  0  0  0  0  0  0  0  0
    2.6987    4.2795   11.9926 C   0  0  0  0  0  0  0  0  0  0  0  0
    2.1171    5.3870   12.4596 N   0  0  0  0  0  0  0  0  0  0  0  0
    1.1550    6.0664   11.8202 C   0  0  0  0  0  0  0  0  0  0  0  0
    0.7614    5.5708   10.6110 N   0  0  0  0  0  0  0  0  0  0  0  0
    1.3125    4.4661   10.1007 C   0  0  0  0  0  0  0  0  0  0  0  0
    1.1443    3.7460    8.9615 N   0  0  0  0  0  0  0  0  0  0  0  0
    0.5608    7.2435   12.3530 N   0  0  0  0  0  0  0  0  0  0  0  0
    1.0657    7.7550   13.5905 C   0  0  0  0  0  0  0  0  0  0  0  0
    2.4918    8.2020   13.5286 C   0  0  0  0  0  0  0  0  0  0  0  0
    3.0245    8.4196   14.8824 C   0  0  0  0  0  0  0  0  0  0  0  0
    2.1746    8.8037   15.9129 C   0  0  0  0  0  0  0  0  0  0  0  0
    2.6547    9.0296   17.1918 C   0  0  0  0  0  0  0  0  0  0  0  0
    4.0109    8.8771   17.4827 C   0  0  0  0  0  0  0  0  0  0  0  0
    4.8446    8.4967   16.4560 C   0  0  0  0  0  0  0  0  0  0  0  0
    4.3538    8.2703   15.1664 C   0  0  0  0  0  0  0  0  0  0  0  0
    4.4910    9.1041   18.7676 O   0  0  0  0  0  0  0  0  0  0  0  0
    3.7165    3.5939   12.7097 N   0  0  0  0  0  0  0  0  0  0  0  0
  1  2  2  0
  2  3  1  0
  3  4  1  0
  4  5  2  0
  4  6  1  0
  6  7  2  0
  7  8  1  0
  8  9  1  0
  9 10  2  0
 10 11  1  0
 11 12  2  0
 12 13  1  0
 13 14  2  0
 11 15  1  0
 15 16  1  0
 16 17  1  0
 17 18  1  0
 18 19  2  0
 19 20  1  0
 20 21  2  0
 21 22  1  0
 22 23  2  0
 21 24  1  0
  9 25  1  0
  5  1  1  0
 14  6  1  0
 13  8  1  0
 23 18  1  0
M  END
$$$$
