
     RDKit          3D

 25 28  0  0  0  0  0  0  0  0999 V2000
    1.8451    0.5160    5.9504 C   0  0  0  0  0  0  0  0  0  0  0  0
    3.0590    0.1569    6.5008 C   0  0  0  0  0  0  0  0  0  0  0  0
    3.2801    0.9022    7.5529 O   0  0  0  0  0  0  0  0  0  0  0  0
    2.3149    1.7441    7.7686 C   0  0  0  0  0  0  0  0  0  0  0  0
    1.3758    1.5341    6.7701 C   0  0  0  0  0  0  0  0  0  0  0  0
    2.1857    2.7433    8.8384 C   0  0  0  0  0  0  0  0  0  0  0  0
    2.9463    2.7963    9.9546 N   0  0  0  0  0  0  0  0  0  0  0  0
    2.5385    3.8258   10.6776 N   0  0  0  0  0  0  0  0  0  0  0  0
    3.0098    4.2652   11.8771 C   0  0  0  0  0  0  0  0  0  0  0  0
    2.4148    5.3406   12.3991 N   0  0  0  0  0  0  0  0  0  0  0  0
    1.4005    6.0010   11.8237 C   0  0  0  0  0  0  0  0  0  0  0  0
    0.9652    5.5206   10.6227 N   0  0  0  0  0  0  0  0  0  0  0  0
    1.5275    4.4479   10.0591 C   0  0  0  0  0  0  0  0  0  0  0  0
    1.3283    3.7493    8.9114 N   0  0  0  0  0  0  0  0  0  0  0  0
    0.7938    7.1439   12.4138 N   0  0  0  0  0  0  0  0  0  0  0  0
    1.3121    7.6162   13.6613 C   0  0  0  0  0  0  0  0  0  0  0  0
    2.7587    7.9939   13.6164 C   0  0  0  0  0  0  0  0  0  0  0  0
    3.2852    8.1865   14.9763 C   0  0  0  0  0  0  0  0  0  0  0  0
    2.5412    7.7772   16.0766 C   0  0  0  0  0  0  0  0  0  0  0  0
    3.0084    7.9616   17.3670 C   0  0  0  0  0  0  0  0  0  0  0  0
    4.2445    8.5660   17.5993 C   0  0  0  0  0  0  0  0  0  0  0  0
    4.9738    8.9681   16.5037 C   0  0  0  0  0  0  0  0  0  0  0  0
    4.4965    8.7793   15.2030 C   0  0  0  0  0  0  0  0  0  0  0  0
    4.7120    8.7501   18.8956 O   0  0  0  0  0  0  0  0  0  0  0  0
    4.0837    3.5987   12.5272 N   0  0  0  0  0  0  0  0  0  0  0  0
  1  2  2  0
  2  3  1  0
  3  4  1  0
  4  5  2  0
  4  6  1  0
  6  7  2  0
  7  8  1  0
  8  9  1  0
  9 10  2  0
 10 11  1  0
 11 12  2  0
 12 13  1  0
 13 14  2  0
 11 15  1  0
 15 16  1  0
 16 17  1  0
 17 18  1  0
 18 19  2  0
 19 20  1  0
 20 21  2  0
 21 22  1  0
 22 23  2  0
 21 24  1  0
  9 25  1  0
  5  1  1  0
 14  6  1  0
 13  8  1  0
 23 18  1  0
M  END
$$$$
