
     RDKit          3D

 25 28  0  0  0  0  0  0  0  0999 V2000
    5.9782    5.7903   15.3110 C   0  0  0  0  0  0  0  0  0  0  0  0
    6.5639    4.5651   15.0639 C   0  0  0  0  0  0  0  0  0  0  0  0
    5.9263    3.9856   14.0794 O   0  0  0  0  0  0  0  0  0  0  0  0
    4.9498    4.7154   13.6312 C   0  0  0  0  0  0  0  0  0  0  0  0
    4.9445    5.8777   14.3877 C   0  0  0  0  0  0  0  0  0  0  0  0
    4.0052    4.4235   12.5440 C   0  0  0  0  0  0  0  0  0  0  0  0
    3.9164    3.2495   11.8798 N   0  0  0  0  0  0  0  0  0  0  0  0
    2.9570    3.3634   10.9767 N   0  0  0  0  0  0  0  0  0  0  0  0
    2.5150    2.4379   10.0812 C   0  0  0  0  0  0  0  0  0  0  0  0
    1.5214    2.8119    9.2713 N   0  0  0  0  0  0  0  0  0  0  0  0
    0.9441    4.0213    9.2869 C   0  0  0  0  0  0  0  0  0  0  0  0
    1.4234    4.9124   10.2027 N   0  0  0  0  0  0  0  0  0  0  0  0
    2.4160    4.5863   11.0351 C   0  0  0  0  0  0  0  0  0  0  0  0
    3.0910    5.2274   12.0241 N   0  0  0  0  0  0  0  0  0  0  0  0
   -0.1131    4.3801    8.4059 N   0  0  0  0  0  0  0  0  0  0  0  0
   -0.6672    5.6950    8.5151 C   0  0  0  0  0  0  0  0  0  0  0  0
   -1.3099    5.9778    9.8358 C   0  0  0  0  0  0  0  0  0  0  0  0
   -1.4466    7.4275   10.0444 C   0  0  0  0  0  0  0  0  0  0  0  0
   -1.8769    7.9180   11.2716 C   0  0  0  0  0  0  0  0  0  0  0  0
   -2.0282    9.2774   11.4873 C   0  0  0  0  0  0  0  0  0  0  0  0
   -1.7518   10.1963   10.4743 C   0  0  0  0  0  0  0  0  0  0  0  0
   -1.3266    9.7011    9.2627 C   0  0  0  0  0  0  0  0  0  0  0  0
   -1.1759    8.3272    9.0508 C   0  0  0  0  0  0  0  0  0  0  0  0
   -1.9041   11.5608   10.6929 O   0  0  0  0  0  0  0  0  0  0  0  0
    3.0950    1.1415   10.0258 N   0  0  0  0  0  0  0  0  0  0  0  0
  1  2  2  0
  2  3  1  0
  3  4  1  0
  4  5  2  0
  4  6  1  0
  6  7  2  0
  7  8  1  0
  8  9  1  0
  9 10  2  0
 10 11  1  0
 11 12  2  0
 12 13  1  0
 13 14  2  0
 11 15  1  0
 15 16  1  0
 16 17  1  0
 17 18  1  0
 18 19  2  0
 19 20  1  0
 20 21  2  0
 21 22  1  0
 22 23  2  0
 21 24  1  0
  9 25  1  0
  5  1  1  0
 14  6  1  0
 13  8  1  0
 23 18  1  0
M  END
$$$$
