
     RDKit          3D

 25 28  0  0  0  0  0  0  0  0999 V2000
    3.2805    0.1571    6.7632 C   0  0  0  0  0  0  0  0  0  0  0  0
    2.1706    0.5752    6.0571 C   0  0  0  0  0  0  0  0  0  0  0  0
    1.5899    1.5415    6.7207 O   0  0  0  0  0  0  0  0  0  0  0  0
    2.2127    1.8200    7.8260 C   0  0  0  0  0  0  0  0  0  0  0  0
    3.2991    0.9610    7.8955 C   0  0  0  0  0  0  0  0  0  0  0  0
    1.8822    2.8306    8.8403 C   0  0  0  0  0  0  0  0  0  0  0  0
    2.6036    3.0846    9.9549 N   0  0  0  0  0  0  0  0  0  0  0  0
    1.9985    4.0542   10.6202 N   0  0  0  0  0  0  0  0  0  0  0  0
    2.3616    4.6366   11.7962 C   0  0  0  0  0  0  0  0  0  0  0  0
    1.5669    5.6053   12.2577 N   0  0  0  0  0  0  0  0  0  0  0  0
    0.4539    6.0306   11.6441 C   0  0  0  0  0  0  0  0  0  0  0  0
    0.1340    5.4148   10.4689 N   0  0  0  0  0  0  0  0  0  0  0  0
    0.8967    4.4405    9.9656 C   0  0  0  0  0  0  0  0  0  0  0  0
    0.8491    3.6582    8.8562 N   0  0  0  0  0  0  0  0  0  0  0  0
   -0.3660    7.0668   12.1700 N   0  0  0  0  0  0  0  0  0  0  0  0
    0.2046    7.9568   13.1344 C   0  0  0  0  0  0  0  0  0  0  0  0
    0.8306    9.1787   12.5408 C   0  0  0  0  0  0  0  0  0  0  0  0
    1.3984   10.0329   13.5952 C   0  0  0  0  0  0  0  0  0  0  0  0
    1.8146    9.4732   14.7974 C   0  0  0  0  0  0  0  0  0  0  0  0
    2.3380   10.2584   15.8107 C   0  0  0  0  0  0  0  0  0  0  0  0
    2.4626   11.6391   15.6523 C   0  0  0  0  0  0  0  0  0  0  0  0
    2.0476   12.1841   14.4587 C   0  0  0  0  0  0  0  0  0  0  0  0
    1.5197   11.3860   13.4391 C   0  0  0  0  0  0  0  0  0  0  0  0
    2.9885   12.4258   16.6709 O   0  0  0  0  0  0  0  0  0  0  0  0
    3.5332    4.2204   12.4850 N   0  0  0  0  0  0  0  0  0  0  0  0
  1  2  2  0
  2  3  1  0
  3  4  1  0
  4  5  2  0
  4  6  1  0
  6  7  2  0
  7  8  1  0
  8  9  1  0
  9 10  2  0
 10 11  1  0
 11 12  2  0
 12 13  1  0
 13 14  2  0
 11 15  1  0
 15 16  1  0
 16 17  1  0
 17 18  1  0
 18 19  2  0
 19 20  1  0
 20 21  2  0
 21 22  1  0
 22 23  2  0
 21 24  1  0
  9 25  1  0
  5  1  1  0
 14  6  1  0
 13  8  1  0
 23 18  1  0
M  END
$$$$
