
     RDKit          3D

 25 28  0  0  0  0  0  0  0  0999 V2000
    2.3279    0.2390    6.3533 C   0  0  0  0  0  0  0  0  0  0  0  0
    3.5002   -0.0296    7.0307 C   0  0  0  0  0  0  0  0  0  0  0  0
    3.5692    0.7519    8.0775 O   0  0  0  0  0  0  0  0  0  0  0  0
    2.5377    1.5356    8.1726 C   0  0  0  0  0  0  0  0  0  0  0  0
    1.7178    1.2437    7.0930 C   0  0  0  0  0  0  0  0  0  0  0  0
    2.2416    2.5486    9.1951 C   0  0  0  0  0  0  0  0  0  0  0  0
    2.9413    2.7351   10.3365 N   0  0  0  0  0  0  0  0  0  0  0  0
    2.3800    3.7314   11.0009 N   0  0  0  0  0  0  0  0  0  0  0  0
    2.7421    4.2682   12.1986 C   0  0  0  0  0  0  0  0  0  0  0  0
    1.9983    5.2797   12.6533 N   0  0  0  0  0  0  0  0  0  0  0  0
    0.9366    5.7886   12.0131 C   0  0  0  0  0  0  0  0  0  0  0  0
    0.6154    5.2155   10.8168 N   0  0  0  0  0  0  0  0  0  0  0  0
    1.3282    4.2012   10.3193 C   0  0  0  0  0  0  0  0  0  0  0  0
    1.2654    3.4428    9.1943 N   0  0  0  0  0  0  0  0  0  0  0  0
    0.1700    6.8680   12.5325 N   0  0  0  0  0  0  0  0  0  0  0  0
    0.6485    7.5343   13.7051 C   0  0  0  0  0  0  0  0  0  0  0  0
    1.7763    8.4831   13.4495 C   0  0  0  0  0  0  0  0  0  0  0  0
    2.7206    8.4794   14.5774 C   0  0  0  0  0  0  0  0  0  0  0  0
    2.2495    8.3785   15.8811 C   0  0  0  0  0  0  0  0  0  0  0  0
    3.1174    8.3884   16.9600 C   0  0  0  0  0  0  0  0  0  0  0  0
    4.4948    8.5005   16.7673 C   0  0  0  0  0  0  0  0  0  0  0  0
    4.9518    8.6000   15.4730 C   0  0  0  0  0  0  0  0  0  0  0  0
    4.0704    8.5897   14.3876 C   0  0  0  0  0  0  0  0  0  0  0  0
    5.3647    8.5100   17.8519 O   0  0  0  0  0  0  0  0  0  0  0  0
    3.8605    3.7634   12.9160 N   0  0  0  0  0  0  0  0  0  0  0  0
  1  2  2  0
  2  3  1  0
  3  4  1  0
  4  5  2  0
  4  6  1  0
  6  7  2  0
  7  8  1  0
  8  9  1  0
  9 10  2  0
 10 11  1  0
 11 12  2  0
 12 13  1  0
 13 14  2  0
 11 15  1  0
 15 16  1  0
 16 17  1  0
 17 18  1  0
 18 19  2  0
 19 20  1  0
 20 21  2  0
 21 22  1  0
 22 23  2  0
 21 24  1  0
  9 25  1  0
  5  1  1  0
 14  6  1  0
 13  8  1  0
 23 18  1  0
M  END
$$$$
