
     RDKit          3D

 25 28  0  0  0  0  0  0  0  0999 V2000
    1.8853    0.3840    6.3291 C   0  0  0  0  0  0  0  0  0  0  0  0
    3.0123    0.0073    7.0313 C   0  0  0  0  0  0  0  0  0  0  0  0
    3.1333    0.7818    8.0786 O   0  0  0  0  0  0  0  0  0  0  0  0
    2.1792    1.6601    8.1512 C   0  0  0  0  0  0  0  0  0  0  0  0
    1.3580    1.4443    7.0548 C   0  0  0  0  0  0  0  0  0  0  0  0
    1.9592    2.6998    9.1663 C   0  0  0  0  0  0  0  0  0  0  0  0
    2.6793    2.8498   10.3004 N   0  0  0  0  0  0  0  0  0  0  0  0
    2.1907    3.8870   10.9595 N   0  0  0  0  0  0  0  0  0  0  0  0
    2.5975    4.4094   12.1493 C   0  0  0  0  0  0  0  0  0  0  0  0
    1.9261    5.4720   12.6000 N   0  0  0  0  0  0  0  0  0  0  0  0
    0.8950    6.0442   11.9633 C   0  0  0  0  0  0  0  0  0  0  0  0
    0.5266    5.4829   10.7750 N   0  0  0  0  0  0  0  0  0  0  0  0
    1.1666    4.4192   10.2817 C   0  0  0  0  0  0  0  0  0  0  0  0
    1.0444    3.6566    9.1645 N   0  0  0  0  0  0  0  0  0  0  0  0
    0.2059    7.1767   12.4783 N   0  0  0  0  0  0  0  0  0  0  0  0
    0.7084    7.7895   13.6699 C   0  0  0  0  0  0  0  0  0  0  0  0
    2.0294    8.4691   13.4952 C   0  0  0  0  0  0  0  0  0  0  0  0
    2.6877    8.6615   14.7965 C   0  0  0  0  0  0  0  0  0  0  0  0
    4.0682    8.5408   14.9043 C   0  0  0  0  0  0  0  0  0  0  0  0
    4.7093    8.7021   16.1209 C   0  0  0  0  0  0  0  0  0  0  0  0
    3.9841    8.9917   17.2773 C   0  0  0  0  0  0  0  0  0  0  0  0
    2.6179    9.1091   17.1608 C   0  0  0  0  0  0  0  0  0  0  0  0
    1.9761    8.9449   15.9294 C   0  0  0  0  0  0  0  0  0  0  0  0
    4.6297    9.1536   18.4980 O   0  0  0  0  0  0  0  0  0  0  0  0
    3.6860    3.8381   12.8627 N   0  0  0  0  0  0  0  0  0  0  0  0
  1  2  2  0
  2  3  1  0
  3  4  1  0
  4  5  2  0
  4  6  1  0
  6  7  2  0
  7  8  1  0
  8  9  1  0
  9 10  2  0
 10 11  1  0
 11 12  2  0
 12 13  1  0
 13 14  2  0
 11 15  1  0
 15 16  1  0
 16 17  1  0
 17 18  1  0
 18 19  2  0
 19 20  1  0
 20 21  2  0
 21 22  1  0
 22 23  2  0
 21 24  1  0
  9 25  1  0
  5  1  1  0
 14  6  1  0
 13  8  1  0
 23 18  1  0
M  END
$$$$
