
     RDKit          3D

 25 28  0  0  0  0  0  0  0  0999 V2000
    3.3343    9.9089   16.0693 C   0  0  0  0  0  0  0  0  0  0  0  0
    3.5802    8.7812   16.8262 C   0  0  0  0  0  0  0  0  0  0  0  0
    3.3206    7.7237   16.1012 O   0  0  0  0  0  0  0  0  0  0  0  0
    2.9162    8.0357   14.9070 C   0  0  0  0  0  0  0  0  0  0  0  0
    2.9091    9.4208   14.8406 C   0  0  0  0  0  0  0  0  0  0  0  0
    2.5292    7.1457   13.8035 C   0  0  0  0  0  0  0  0  0  0  0  0
    3.1383    5.9809   13.4882 N   0  0  0  0  0  0  0  0  0  0  0  0
    2.5142    5.4640   12.4431 N   0  0  0  0  0  0  0  0  0  0  0  0
    2.7773    4.3036   11.7812 C   0  0  0  0  0  0  0  0  0  0  0  0
    1.9867    4.0097   10.7461 N   0  0  0  0  0  0  0  0  0  0  0  0
    0.9687    4.7743   10.3275 C   0  0  0  0  0  0  0  0  0  0  0  0
    0.7467    5.9265   11.0245 N   0  0  0  0  0  0  0  0  0  0  0  0
    1.5097    6.2650   12.0674 C   0  0  0  0  0  0  0  0  0  0  0  0
    1.5428    7.3088   12.9358 N   0  0  0  0  0  0  0  0  0  0  0  0
    0.1495    4.4247    9.2188 N   0  0  0  0  0  0  0  0  0  0  0  0
    0.4137    3.1896    8.5459 C   0  0  0  0  0  0  0  0  0  0  0  0
    1.8453    2.7599    8.6006 C   0  0  0  0  0  0  0  0  0  0  0  0
    2.0537    1.5511    7.7886 C   0  0  0  0  0  0  0  0  0  0  0  0
    3.2977    0.9318    7.7663 C   0  0  0  0  0  0  0  0  0  0  0  0
    3.5227   -0.1979    6.9979 C   0  0  0  0  0  0  0  0  0  0  0  0
    2.5022   -0.7481    6.2214 C   0  0  0  0  0  0  0  0  0  0  0  0
    1.2741   -0.1278    6.2497 C   0  0  0  0  0  0  0  0  0  0  0  0
    1.0531    1.0129    7.0275 C   0  0  0  0  0  0  0  0  0  0  0  0
    2.7300   -1.8826    5.4506 O   0  0  0  0  0  0  0  0  0  0  0  0
    3.8459    3.4588   12.1868 N   0  0  0  0  0  0  0  0  0  0  0  0
  1  2  2  0
  2  3  1  0
  3  4  1  0
  4  5  2  0
  4  6  1  0
  6  7  2  0
  7  8  1  0
  8  9  1  0
  9 10  2  0
 10 11  1  0
 11 12  2  0
 12 13  1  0
 13 14  2  0
 11 15  1  0
 15 16  1  0
 16 17  1  0
 17 18  1  0
 18 19  2  0
 19 20  1  0
 20 21  2  0
 21 22  1  0
 22 23  2  0
 21 24  1  0
  9 25  1  0
  5  1  1  0
 14  6  1  0
 13  8  1  0
 23 18  1  0
M  END
$$$$
