
     RDKit          3D

 25 28  0  0  0  0  0  0  0  0999 V2000
    1.8748    0.1473    6.3117 C   0  0  0  0  0  0  0  0  0  0  0  0
    3.0859   -0.1636    6.8963 C   0  0  0  0  0  0  0  0  0  0  0  0
    3.2737    0.6283    7.9205 O   0  0  0  0  0  0  0  0  0  0  0  0
    2.2880    1.4580    8.0855 C   0  0  0  0  0  0  0  0  0  0  0  0
    1.3708    1.1879    7.0810 C   0  0  0  0  0  0  0  0  0  0  0  0
    2.1201    2.4969    9.1111 C   0  0  0  0  0  0  0  0  0  0  0  0
    2.8680    2.6184   10.2305 N   0  0  0  0  0  0  0  0  0  0  0  0
    2.4241    3.6651   10.9060 N   0  0  0  0  0  0  0  0  0  0  0  0
    2.8710    4.1676   12.0899 C   0  0  0  0  0  0  0  0  0  0  0  0
    2.2407    5.2464   12.5611 N   0  0  0  0  0  0  0  0  0  0  0  0
    1.2137    5.8528   11.9498 C   0  0  0  0  0  0  0  0  0  0  0  0
    0.8040    5.3102   10.7663 N   0  0  0  0  0  0  0  0  0  0  0  0
    1.4020    4.2315   10.2532 C   0  0  0  0  0  0  0  0  0  0  0  0
    1.2339    3.4800    9.1344 N   0  0  0  0  0  0  0  0  0  0  0  0
    0.5691    7.0015   12.4860 N   0  0  0  0  0  0  0  0  0  0  0  0
    1.0418    7.5219   13.7324 C   0  0  0  0  0  0  0  0  0  0  0  0
    2.2928    8.3340   13.6186 C   0  0  0  0  0  0  0  0  0  0  0  0
    2.8808    8.5665   14.9468 C   0  0  0  0  0  0  0  0  0  0  0  0
    2.2263    9.3769   15.8670 C   0  0  0  0  0  0  0  0  0  0  0  0
    2.7671    9.6233   17.1177 C   0  0  0  0  0  0  0  0  0  0  0  0
    3.9892    9.0624   17.4903 C   0  0  0  0  0  0  0  0  0  0  0  0
    4.6298    8.2617   16.5725 C   0  0  0  0  0  0  0  0  0  0  0  0
    4.0788    8.0168   15.3109 C   0  0  0  0  0  0  0  0  0  0  0  0
    4.5305    9.3108   18.7466 O   0  0  0  0  0  0  0  0  0  0  0  0
    3.9570    3.5601   12.7767 N   0  0  0  0  0  0  0  0  0  0  0  0
  1  2  2  0
  2  3  1  0
  3  4  1  0
  4  5  2  0
  4  6  1  0
  6  7  2  0
  7  8  1  0
  8  9  1  0
  9 10  2  0
 10 11  1  0
 11 12  2  0
 12 13  1  0
 13 14  2  0
 11 15  1  0
 15 16  1  0
 16 17  1  0
 17 18  1  0
 18 19  2  0
 19 20  1  0
 20 21  2  0
 21 22  1  0
 22 23  2  0
 21 24  1  0
  9 25  1  0
  5  1  1  0
 14  6  1  0
 13  8  1  0
 23 18  1  0
M  END
$$$$
