
     RDKit          3D

 25 28  0  0  0  0  0  0  0  0999 V2000
    1.8052    0.0457    6.5634 C   0  0  0  0  0  0  0  0  0  0  0  0
    2.9727   -0.3394    7.1911 C   0  0  0  0  0  0  0  0  0  0  0  0
    3.1939    0.4662    8.1978 O   0  0  0  0  0  0  0  0  0  0  0  0
    2.2714    1.3735    8.3112 C   0  0  0  0  0  0  0  0  0  0  0  0
    1.3630    1.1444    7.2886 C   0  0  0  0  0  0  0  0  0  0  0  0
    2.1572    2.4525    9.3022 C   0  0  0  0  0  0  0  0  0  0  0  0
    2.9118    2.5729   10.4172 N   0  0  0  0  0  0  0  0  0  0  0  0
    2.5218    3.6621   11.0579 N   0  0  0  0  0  0  0  0  0  0  0  0
    2.9950    4.1801   12.2249 C   0  0  0  0  0  0  0  0  0  0  0  0
    2.4202    5.3040   12.6603 N   0  0  0  0  0  0  0  0  0  0  0  0
    1.4240    5.9407   12.0292 C   0  0  0  0  0  0  0  0  0  0  0  0
    0.9860    5.3809   10.8641 N   0  0  0  0  0  0  0  0  0  0  0  0
    1.5285    4.2573   10.3867 C   0  0  0  0  0  0  0  0  0  0  0  0
    1.3214    3.4791    9.2930 N   0  0  0  0  0  0  0  0  0  0  0  0
    0.8386    7.1372   12.5274 N   0  0  0  0  0  0  0  0  0  0  0  0
    1.2931    7.6381   13.7885 C   0  0  0  0  0  0  0  0  0  0  0  0
    2.7551    7.9516   13.8286 C   0  0  0  0  0  0  0  0  0  0  0  0
    3.1616    8.3487   15.1854 C   0  0  0  0  0  0  0  0  0  0  0  0
    4.5082    8.5035   15.4927 C   0  0  0  0  0  0  0  0  0  0  0  0
    4.9165    8.8616   16.7664 C   0  0  0  0  0  0  0  0  0  0  0  0
    3.9832    9.0779   17.7810 C   0  0  0  0  0  0  0  0  0  0  0  0
    2.6524    8.9220   17.4672 C   0  0  0  0  0  0  0  0  0  0  0  0
    2.2463    8.5601   16.1791 C   0  0  0  0  0  0  0  0  0  0  0  0
    4.3952    9.4376   19.0592 O   0  0  0  0  0  0  0  0  0  0  0  0
    4.0502    3.5417   12.9314 N   0  0  0  0  0  0  0  0  0  0  0  0
  1  2  2  0
  2  3  1  0
  3  4  1  0
  4  5  2  0
  4  6  1  0
  6  7  2  0
  7  8  1  0
  8  9  1  0
  9 10  2  0
 10 11  1  0
 11 12  2  0
 12 13  1  0
 13 14  2  0
 11 15  1  0
 15 16  1  0
 16 17  1  0
 17 18  1  0
 18 19  2  0
 19 20  1  0
 20 21  2  0
 21 22  1  0
 22 23  2  0
 21 24  1  0
  9 25  1  0
  5  1  1  0
 14  6  1  0
 13  8  1  0
 23 18  1  0
M  END
$$$$
