
     RDKit          3D

 25 28  0  0  0  0  0  0  0  0999 V2000
    1.3426    1.9423    5.2250 C   0  0  0  0  0  0  0  0  0  0  0  0
    2.2632    1.0168    5.6739 C   0  0  0  0  0  0  0  0  0  0  0  0
    2.5657    1.2937    6.9162 O   0  0  0  0  0  0  0  0  0  0  0  0
    1.9262    2.3353    7.3557 C   0  0  0  0  0  0  0  0  0  0  0  0
    1.1329    2.7832    6.3101 C   0  0  0  0  0  0  0  0  0  0  0  0
    1.9879    2.9618    8.6835 C   0  0  0  0  0  0  0  0  0  0  0  0
    2.6841    2.4868    9.7404 N   0  0  0  0  0  0  0  0  0  0  0  0
    2.4997    3.3142   10.7554 N   0  0  0  0  0  0  0  0  0  0  0  0
    3.0037    3.2400   12.0181 C   0  0  0  0  0  0  0  0  0  0  0  0
    2.6586    4.2162   12.8613 N   0  0  0  0  0  0  0  0  0  0  0  0
    1.8607    5.2454   12.5449 C   0  0  0  0  0  0  0  0  0  0  0  0
    1.3819    5.2736   11.2671 N   0  0  0  0  0  0  0  0  0  0  0  0
    1.6981    4.3205   10.3861 C   0  0  0  0  0  0  0  0  0  0  0  0
    1.3935    4.0742    9.0856 N   0  0  0  0  0  0  0  0  0  0  0  0
    1.5170    6.2659   13.4738 N   0  0  0  0  0  0  0  0  0  0  0  0
    1.2807    7.5852   12.9722 C   0  0  0  0  0  0  0  0  0  0  0  0
    2.5191    8.4101   12.8199 C   0  0  0  0  0  0  0  0  0  0  0  0
    3.0273    8.8275   14.1357 C   0  0  0  0  0  0  0  0  0  0  0  0
    2.1764    8.8581   15.2342 C   0  0  0  0  0  0  0  0  0  0  0  0
    2.6274    9.2620   16.4795 C   0  0  0  0  0  0  0  0  0  0  0  0
    3.9542    9.6512   16.6667 C   0  0  0  0  0  0  0  0  0  0  0  0
    4.7891    9.6178   15.5732 C   0  0  0  0  0  0  0  0  0  0  0  0
    4.3277    9.2092   14.3181 C   0  0  0  0  0  0  0  0  0  0  0  0
    4.4052   10.0563   17.9180 O   0  0  0  0  0  0  0  0  0  0  0  0
    3.8544    2.1680   12.4021 N   0  0  0  0  0  0  0  0  0  0  0  0
  1  2  2  0
  2  3  1  0
  3  4  1  0
  4  5  2  0
  4  6  1  0
  6  7  2  0
  7  8  1  0
  8  9  1  0
  9 10  2  0
 10 11  1  0
 11 12  2  0
 12 13  1  0
 13 14  2  0
 11 15  1  0
 15 16  1  0
 16 17  1  0
 17 18  1  0
 18 19  2  0
 19 20  1  0
 20 21  2  0
 21 22  1  0
 22 23  2  0
 21 24  1  0
  9 25  1  0
  5  1  1  0
 14  6  1  0
 13  8  1  0
 23 18  1  0
M  END
$$$$
