
     RDKit          3D

 25 28  0  0  0  0  0  0  0  0999 V2000
    1.3010    0.3927    6.3958 C   0  0  0  0  0  0  0  0  0  0  0  0
    2.5029   -0.0825    6.8805 C   0  0  0  0  0  0  0  0  0  0  0  0
    2.8917    0.6853    7.8657 O   0  0  0  0  0  0  0  0  0  0  0  0
    2.0524    1.6495    8.0960 C   0  0  0  0  0  0  0  0  0  0  0  0
    1.0204    1.5031    7.1814 C   0  0  0  0  0  0  0  0  0  0  0  0
    2.1258    2.7127    9.1077 C   0  0  0  0  0  0  0  0  0  0  0  0
    3.0082    2.7589   10.1307 N   0  0  0  0  0  0  0  0  0  0  0  0
    2.7693    3.8581   10.8262 N   0  0  0  0  0  0  0  0  0  0  0  0
    3.4061    4.3186   11.9381 C   0  0  0  0  0  0  0  0  0  0  0  0
    2.9631    5.4691   12.4512 N   0  0  0  0  0  0  0  0  0  0  0  0
    1.9482    6.1842   11.9465 C   0  0  0  0  0  0  0  0  0  0  0  0
    1.3436    5.6796   10.8319 N   0  0  0  0  0  0  0  0  0  0  0  0
    1.7498    4.5325   10.2808 C   0  0  0  0  0  0  0  0  0  0  0  0
    1.3671    3.7930    9.2078 N   0  0  0  0  0  0  0  0  0  0  0  0
    1.5068    7.4065   12.5242 N   0  0  0  0  0  0  0  0  0  0  0  0
    2.4874    8.4032   12.8291 C   0  0  0  0  0  0  0  0  0  0  0  0
    1.9272    9.6335   13.4692 C   0  0  0  0  0  0  0  0  0  0  0  0
    1.9348    9.5032   14.9344 C   0  0  0  0  0  0  0  0  0  0  0  0
    2.7432   10.3314   15.7040 C   0  0  0  0  0  0  0  0  0  0  0  0
    2.7793   10.2177   17.0835 C   0  0  0  0  0  0  0  0  0  0  0  0
    2.0019    9.2642   17.7420 C   0  0  0  0  0  0  0  0  0  0  0  0
    1.2050    8.4485   16.9715 C   0  0  0  0  0  0  0  0  0  0  0  0
    1.1729    8.5681   15.5788 C   0  0  0  0  0  0  0  0  0  0  0  0
    2.0394    9.1516   19.1272 O   0  0  0  0  0  0  0  0  0  0  0  0
    4.4879    3.5963   12.5109 N   0  0  0  0  0  0  0  0  0  0  0  0
  1  2  2  0
  2  3  1  0
  3  4  1  0
  4  5  2  0
  4  6  1  0
  6  7  2  0
  7  8  1  0
  8  9  1  0
  9 10  2  0
 10 11  1  0
 11 12  2  0
 12 13  1  0
 13 14  2  0
 11 15  1  0
 15 16  1  0
 16 17  1  0
 17 18  1  0
 18 19  2  0
 19 20  1  0
 20 21  2  0
 21 22  1  0
 22 23  2  0
 21 24  1  0
  9 25  1  0
  5  1  1  0
 14  6  1  0
 13  8  1  0
 23 18  1  0
M  END
$$$$
