
     RDKit          3D

 25 28  0  0  0  0  0  0  0  0999 V2000
    1.8052    0.0439    6.7385 C   0  0  0  0  0  0  0  0  0  0  0  0
    3.1196    0.0080    7.1584 C   0  0  0  0  0  0  0  0  0  0  0  0
    3.2724    0.8651    8.1348 O   0  0  0  0  0  0  0  0  0  0  0  0
    2.1676    1.4865    8.4185 C   0  0  0  0  0  0  0  0  0  0  0  0
    1.2029    0.9946    7.5523 C   0  0  0  0  0  0  0  0  0  0  0  0
    1.9250    2.5142    9.4406 C   0  0  0  0  0  0  0  0  0  0  0  0
    2.6620    2.6932   10.5595 N   0  0  0  0  0  0  0  0  0  0  0  0
    2.1435    3.7075   11.2314 N   0  0  0  0  0  0  0  0  0  0  0  0
    2.5528    4.2451   12.4135 C   0  0  0  0  0  0  0  0  0  0  0  0
    1.8462    5.2771   12.8810 N   0  0  0  0  0  0  0  0  0  0  0  0
    0.7781    5.8055   12.2677 C   0  0  0  0  0  0  0  0  0  0  0  0
    0.4088    5.2307   11.0862 N   0  0  0  0  0  0  0  0  0  0  0  0
    1.0833    4.1962   10.5768 C   0  0  0  0  0  0  0  0  0  0  0  0
    0.9701    3.4308    9.4605 N   0  0  0  0  0  0  0  0  0  0  0  0
    0.0521    6.9065   12.8000 N   0  0  0  0  0  0  0  0  0  0  0  0
    0.6242    7.6271   13.8962 C   0  0  0  0  0  0  0  0  0  0  0  0
    1.5606    8.7188   13.4854 C   0  0  0  0  0  0  0  0  0  0  0  0
    2.1061    9.4039   14.6674 C   0  0  0  0  0  0  0  0  0  0  0  0
    2.2892   10.7815   14.6523 C   0  0  0  0  0  0  0  0  0  0  0  0
    2.8153   11.4470   15.7466 C   0  0  0  0  0  0  0  0  0  0  0  0
    3.1777   10.7499   16.8998 C   0  0  0  0  0  0  0  0  0  0  0  0
    2.9929    9.3863   16.9052 C   0  0  0  0  0  0  0  0  0  0  0  0
    2.4614    8.7198   15.7969 C   0  0  0  0  0  0  0  0  0  0  0  0
    3.7056   11.4200   17.9977 O   0  0  0  0  0  0  0  0  0  0  0  0
    3.6798    3.7200   13.1022 N   0  0  0  0  0  0  0  0  0  0  0  0
  1  2  2  0
  2  3  1  0
  3  4  1  0
  4  5  2  0
  4  6  1  0
  6  7  2  0
  7  8  1  0
  8  9  1  0
  9 10  2  0
 10 11  1  0
 11 12  2  0
 12 13  1  0
 13 14  2  0
 11 15  1  0
 15 16  1  0
 16 17  1  0
 17 18  1  0
 18 19  2  0
 19 20  1  0
 20 21  2  0
 21 22  1  0
 22 23  2  0
 21 24  1  0
  9 25  1  0
  5  1  1  0
 14  6  1  0
 13  8  1  0
 23 18  1  0
M  END
$$$$
