
     RDKit          3D

 27 29  0  0  0  0  0  0  0  0999 V2000
   -1.4379    3.3096    8.2781 C   0  0  0  0  0  0  0  0  0  0  0  0
   -1.5164    2.7034    9.6249 C   0  0  0  0  0  0  0  0  0  0  0  0
   -0.1653    2.3499   10.2119 C   0  0  0  0  0  0  0  0  0  0  0  0
   -0.4567    2.3013   11.6985 C   0  0  0  0  0  0  0  0  0  0  0  0
   -1.8861    2.8119   11.8481 C   0  0  0  0  0  0  0  0  0  0  0  0
   -2.1656    3.5271   10.6342 N   0  0  0  0  0  0  0  0  0  0  0  0
   -1.6837    4.8483   10.6872 C   0  0  0  0  0  0  0  0  0  0  0  0
   -2.4682    5.6603   11.6421 C   0  0  0  0  0  0  0  0  0  0  0  0
   -3.7455    6.1164   11.4234 C   0  0  0  0  0  0  0  0  0  0  0  0
   -4.4001    6.8774   12.3711 C   0  0  0  0  0  0  0  0  0  0  0  0
   -3.8191    7.2167   13.5698 C   0  0  0  0  0  0  0  0  0  0  0  0
   -2.5379    6.7644   13.8001 C   0  0  0  0  0  0  0  0  0  0  0  0
   -1.8877    6.0122   12.8662 C   0  0  0  0  0  0  0  0  0  0  0  0
    0.2513    0.9916    9.8288 N   0  0  0  0  0  0  0  0  0  0  0  0
    1.3864    0.3936   10.3947 C   0  0  0  0  0  0  0  0  0  0  0  0
    1.9600    1.1164   11.2976 O   0  0  0  0  0  0  0  0  0  0  0  0
    1.9484   -0.9075   10.0698 C   0  0  0  0  0  0  0  0  0  0  0  0
    3.0122   -0.9811    9.1572 C   0  0  0  0  0  0  0  0  0  0  0  0
    3.5861   -2.1768    8.8025 C   0  0  0  0  0  0  0  0  0  0  0  0
    3.1500   -3.3755    9.3232 C   0  0  0  0  0  0  0  0  0  0  0  0
    2.1108   -3.3125   10.2160 C   0  0  0  0  0  0  0  0  0  0  0  0
    1.5168   -2.0895   10.5847 C   0  0  0  0  0  0  0  0  0  0  0  0
    0.4717   -2.1270   11.4945 O   0  0  0  0  0  0  0  0  0  0  0  0
    0.0540   -3.2838   12.1597 C   0  0  0  0  0  0  0  0  0  0  0  0
    3.7608   -4.6073    8.9377 N   0  0  0  0  0  0  0  0  0  0  0  0
    3.3476   -5.8933    9.4488 C   0  0  0  0  0  0  0  0  0  0  0  0
    4.9180   -2.2549    7.6584 Cl  0  0  0  0  0  0  0  0  0  0  0  0
  1  2  1  0
  2  3  1  0
  3  4  1  0
  4  5  1  0
  5  6  1  0
  6  7  1  0
  7  8  1  0
  8  9  2  0
  9 10  1  0
 10 11  2  0
 11 12  1  0
 12 13  2  0
  3 14  1  0
 14 15  1  0
 15 16  2  0
 15 17  1  0
 17 18  2  0
 18 19  1  0
 19 20  2  0
 20 21  1  0
 21 22  2  0
 22 23  1  0
 23 24  1  0
 20 25  1  0
 25 26  1  0
 19 27  1  0
  6  2  1  0
 13  8  1  0
 22 17  1  0
M  END
$$$$
