
     RDKit          3D

 27 29  0  0  0  0  0  0  0  0999 V2000
    2.7773    0.0573   11.8442 C   0  0  0  0  0  0  0  0  0  0  0  0
    1.5250    0.4723   11.1755 C   0  0  0  0  0  0  0  0  0  0  0  0
    1.3648    1.9745   11.0634 C   0  0  0  0  0  0  0  0  0  0  0  0
    0.3825    2.1145    9.9178 C   0  0  0  0  0  0  0  0  0  0  0  0
    0.2137    0.7073    9.3544 C   0  0  0  0  0  0  0  0  0  0  0  0
    1.3549   -0.0303    9.8201 N   0  0  0  0  0  0  0  0  0  0  0  0
    2.4759    0.1707    8.9933 C   0  0  0  0  0  0  0  0  0  0  0  0
    2.8823   -1.0901    8.3362 C   0  0  0  0  0  0  0  0  0  0  0  0
    2.6413   -1.4053    7.0210 C   0  0  0  0  0  0  0  0  0  0  0  0
    3.0517   -2.6131    6.4933 C   0  0  0  0  0  0  0  0  0  0  0  0
    3.7151   -3.5548    7.2432 C   0  0  0  0  0  0  0  0  0  0  0  0
    3.9625   -3.2493    8.5640 C   0  0  0  0  0  0  0  0  0  0  0  0
    3.5588   -2.0569    9.0893 C   0  0  0  0  0  0  0  0  0  0  0  0
    0.6986    2.5366   12.2489 N   0  0  0  0  0  0  0  0  0  0  0  0
    0.3290    3.8882   12.3016 C   0  0  0  0  0  0  0  0  0  0  0  0
    0.1989    4.4378   11.1407 O   0  0  0  0  0  0  0  0  0  0  0  0
    0.0906    4.6882   13.4921 C   0  0  0  0  0  0  0  0  0  0  0  0
    1.0732    4.7286   14.4935 C   0  0  0  0  0  0  0  0  0  0  0  0
    0.9108    5.4594   15.6443 C   0  0  0  0  0  0  0  0  0  0  0  0
   -0.2283    6.1968   15.8827 C   0  0  0  0  0  0  0  0  0  0  0  0
   -1.1936    6.1630   14.9090 C   0  0  0  0  0  0  0  0  0  0  0  0
   -1.0342    5.4154   13.7257 C   0  0  0  0  0  0  0  0  0  0  0  0
   -2.0654    5.4432   12.7999 O   0  0  0  0  0  0  0  0  0  0  0  0
   -3.2021    6.2489   12.9182 C   0  0  0  0  0  0  0  0  0  0  0  0
   -0.3761    6.9476   17.0883 N   0  0  0  0  0  0  0  0  0  0  0  0
   -1.5233    7.7780   17.3717 C   0  0  0  0  0  0  0  0  0  0  0  0
    2.1495    5.5014   16.8905 Cl  0  0  0  0  0  0  0  0  0  0  0  0
  1  2  1  0
  2  3  1  0
  3  4  1  0
  4  5  1  0
  5  6  1  0
  6  7  1  0
  7  8  1  0
  8  9  2  0
  9 10  1  0
 10 11  2  0
 11 12  1  0
 12 13  2  0
  3 14  1  0
 14 15  1  0
 15 16  2  0
 15 17  1  0
 17 18  2  0
 18 19  1  0
 19 20  2  0
 20 21  1  0
 21 22  2  0
 22 23  1  0
 23 24  1  0
 20 25  1  0
 25 26  1  0
 19 27  1  0
  6  2  1  0
 13  8  1  0
 22 17  1  0
M  END
$$$$
