
     RDKit          3D

 27 29  0  0  0  0  0  0  0  0999 V2000
    1.7069    0.4014   11.8645 C   0  0  0  0  0  0  0  0  0  0  0  0
    1.0016    0.8817   10.6564 C   0  0  0  0  0  0  0  0  0  0  0  0
    1.3002    2.3265   10.3125 C   0  0  0  0  0  0  0  0  0  0  0  0
    0.9567    2.3898    8.8377 C   0  0  0  0  0  0  0  0  0  0  0  0
    0.6769    0.9484    8.4246 C   0  0  0  0  0  0  0  0  0  0  0  0
    1.2857    0.1348    9.4398 N   0  0  0  0  0  0  0  0  0  0  0  0
    2.6585   -0.0577    9.1971 C   0  0  0  0  0  0  0  0  0  0  0  0
    2.9233   -1.4289    8.7111 C   0  0  0  0  0  0  0  0  0  0  0  0
    3.1662   -2.5157    9.5155 C   0  0  0  0  0  0  0  0  0  0  0  0
    3.4121   -3.7608    8.9724 C   0  0  0  0  0  0  0  0  0  0  0  0
    3.4273   -3.9802    7.6156 C   0  0  0  0  0  0  0  0  0  0  0  0
    3.1846   -2.8971    6.7988 C   0  0  0  0  0  0  0  0  0  0  0  0
    2.9412   -1.6652    7.3315 C   0  0  0  0  0  0  0  0  0  0  0  0
    0.3734    3.2459   10.9915 N   0  0  0  0  0  0  0  0  0  0  0  0
    0.4866    3.5081   12.3643 C   0  0  0  0  0  0  0  0  0  0  0  0
    1.5814    3.0695   12.8895 O   0  0  0  0  0  0  0  0  0  0  0  0
   -0.4748    4.1979   13.2094 C   0  0  0  0  0  0  0  0  0  0  0  0
   -1.8419    3.9235   13.0497 C   0  0  0  0  0  0  0  0  0  0  0  0
   -2.8028    4.5421   13.8105 C   0  0  0  0  0  0  0  0  0  0  0  0
   -2.4795    5.4697   14.7766 C   0  0  0  0  0  0  0  0  0  0  0  0
   -1.1455    5.7436   14.9393 C   0  0  0  0  0  0  0  0  0  0  0  0
   -0.1539    5.1129   14.1624 C   0  0  0  0  0  0  0  0  0  0  0  0
    1.1680    5.4554   14.4000 O   0  0  0  0  0  0  0  0  0  0  0  0
    1.5730    6.4099   15.3381 C   0  0  0  0  0  0  0  0  0  0  0  0
   -3.4963    6.1023   15.5544 N   0  0  0  0  0  0  0  0  0  0  0  0
   -3.2160    7.0305   16.6247 C   0  0  0  0  0  0  0  0  0  0  0  0
   -4.5116    4.1892   13.6003 Cl  0  0  0  0  0  0  0  0  0  0  0  0
  1  2  1  0
  2  3  1  0
  3  4  1  0
  4  5  1  0
  5  6  1  0
  6  7  1  0
  7  8  1  0
  8  9  2  0
  9 10  1  0
 10 11  2  0
 11 12  1  0
 12 13  2  0
  3 14  1  0
 14 15  1  0
 15 16  2  0
 15 17  1  0
 17 18  2  0
 18 19  1  0
 19 20  2  0
 20 21  1  0
 21 22  2  0
 22 23  1  0
 23 24  1  0
 20 25  1  0
 25 26  1  0
 19 27  1  0
  6  2  1  0
 13  8  1  0
 22 17  1  0
M  END
$$$$
