
     RDKit          3D

 27 29  0  0  0  0  0  0  0  0999 V2000
    0.6993    2.7953    9.0326 C   0  0  0  0  0  0  0  0  0  0  0  0
    1.1073    1.9510   10.1765 C   0  0  0  0  0  0  0  0  0  0  0  0
   -0.0580    1.4173   10.9840 C   0  0  0  0  0  0  0  0  0  0  0  0
    0.5468    0.2110   11.6739 C   0  0  0  0  0  0  0  0  0  0  0  0
    1.9344    0.0477   11.0622 C   0  0  0  0  0  0  0  0  0  0  0  0
    1.8956    0.7786    9.8263 N   0  0  0  0  0  0  0  0  0  0  0  0
    1.3418    0.0100    8.7856 C   0  0  0  0  0  0  0  0  0  0  0  0
    2.2840   -1.0406    8.3438 C   0  0  0  0  0  0  0  0  0  0  0  0
    2.1019   -2.3896    8.5293 C   0  0  0  0  0  0  0  0  0  0  0  0
    3.0413   -3.3004    8.0894 C   0  0  0  0  0  0  0  0  0  0  0  0
    4.1952   -2.9145    7.4499 C   0  0  0  0  0  0  0  0  0  0  0  0
    4.3884   -1.5635    7.2581 C   0  0  0  0  0  0  0  0  0  0  0  0
    3.4625   -0.6604    7.6913 C   0  0  0  0  0  0  0  0  0  0  0  0
   -0.4474    2.3512   12.0524 N   0  0  0  0  0  0  0  0  0  0  0  0
    0.0632    3.6564   12.0976 C   0  0  0  0  0  0  0  0  0  0  0  0
    0.4245    4.1141   10.9458 O   0  0  0  0  0  0  0  0  0  0  0  0
    0.2149    4.5004   13.2718 C   0  0  0  0  0  0  0  0  0  0  0  0
    1.3526    4.3461   14.0790 C   0  0  0  0  0  0  0  0  0  0  0  0
    1.5561    5.1063   15.2040 C   0  0  0  0  0  0  0  0  0  0  0  0
    0.6534    6.0664   15.6059 C   0  0  0  0  0  0  0  0  0  0  0  0
   -0.4613    6.2238   14.8224 C   0  0  0  0  0  0  0  0  0  0  0  0
   -0.6770    5.4476   13.6668 C   0  0  0  0  0  0  0  0  0  0  0  0
   -1.8338    5.6794   12.9393 O   0  0  0  0  0  0  0  0  0  0  0  0
   -2.7850    6.6496   13.2695 C   0  0  0  0  0  0  0  0  0  0  0  0
    0.8851    6.8437   16.7811 N   0  0  0  0  0  0  0  0  0  0  0  0
   -0.0362    7.8446   17.2662 C   0  0  0  0  0  0  0  0  0  0  0  0
    2.9856    4.9029   16.2061 Cl  0  0  0  0  0  0  0  0  0  0  0  0
  1  2  1  0
  2  3  1  0
  3  4  1  0
  4  5  1  0
  5  6  1  0
  6  7  1  0
  7  8  1  0
  8  9  2  0
  9 10  1  0
 10 11  2  0
 11 12  1  0
 12 13  2  0
  3 14  1  0
 14 15  1  0
 15 16  2  0
 15 17  1  0
 17 18  2  0
 18 19  1  0
 19 20  2  0
 20 21  1  0
 21 22  2  0
 22 23  1  0
 23 24  1  0
 20 25  1  0
 25 26  1  0
 19 27  1  0
  6  2  1  0
 13  8  1  0
 22 17  1  0
M  END
$$$$
