
     RDKit          3D

 27 29  0  0  0  0  0  0  0  0999 V2000
   -0.4684    1.8601    8.6755 C   0  0  0  0  0  0  0  0  0  0  0  0
    0.8983    1.8945    9.2400 C   0  0  0  0  0  0  0  0  0  0  0  0
    0.9383    1.7289   10.7453 C   0  0  0  0  0  0  0  0  0  0  0  0
    2.3551    1.2464   10.9841 C   0  0  0  0  0  0  0  0  0  0  0  0
    2.9375    0.9971    9.5967 C   0  0  0  0  0  0  0  0  0  0  0  0
    1.8044    0.8801    8.7218 N   0  0  0  0  0  0  0  0  0  0  0  0
    1.2698   -0.4217    8.7358 C   0  0  0  0  0  0  0  0  0  0  0  0
    2.3133   -1.4260    8.4368 C   0  0  0  0  0  0  0  0  0  0  0  0
    2.9977   -1.5201    7.2494 C   0  0  0  0  0  0  0  0  0  0  0  0
    3.9528   -2.4978    7.0556 C   0  0  0  0  0  0  0  0  0  0  0  0
    4.2685   -3.4188    8.0258 C   0  0  0  0  0  0  0  0  0  0  0  0
    3.5882   -3.3338    9.2213 C   0  0  0  0  0  0  0  0  0  0  0  0
    2.6438   -2.3692    9.4168 C   0  0  0  0  0  0  0  0  0  0  0  0
    0.8222    3.0239   11.4344 N   0  0  0  0  0  0  0  0  0  0  0  0
    0.8301    3.1048   12.8342 C   0  0  0  0  0  0  0  0  0  0  0  0
    1.1661    2.0030   13.4173 O   0  0  0  0  0  0  0  0  0  0  0  0
    0.5083    4.2651   13.6492 C   0  0  0  0  0  0  0  0  0  0  0  0
    1.4651    4.7468   14.5561 C   0  0  0  0  0  0  0  0  0  0  0  0
    1.2251    5.8343   15.3589 C   0  0  0  0  0  0  0  0  0  0  0  0
    0.0289    6.5168   15.3202 C   0  0  0  0  0  0  0  0  0  0  0  0
   -0.9117    6.0527   14.4365 C   0  0  0  0  0  0  0  0  0  0  0  0
   -0.6728    4.9375   13.6096 C   0  0  0  0  0  0  0  0  0  0  0  0
   -1.6847    4.5431   12.7484 O   0  0  0  0  0  0  0  0  0  0  0  0
   -2.9250    5.1815   12.6534 C   0  0  0  0  0  0  0  0  0  0  0  0
   -0.1991    7.6442   16.1665 N   0  0  0  0  0  0  0  0  0  0  0  0
   -1.4492    8.3663   16.2086 C   0  0  0  0  0  0  0  0  0  0  0  0
    2.4321    6.4273   16.4904 Cl  0  0  0  0  0  0  0  0  0  0  0  0
  1  2  1  0
  2  3  1  0
  3  4  1  0
  4  5  1  0
  5  6  1  0
  6  7  1  0
  7  8  1  0
  8  9  2  0
  9 10  1  0
 10 11  2  0
 11 12  1  0
 12 13  2  0
  3 14  1  0
 14 15  1  0
 15 16  2  0
 15 17  1  0
 17 18  2  0
 18 19  1  0
 19 20  2  0
 20 21  1  0
 21 22  2  0
 22 23  1  0
 23 24  1  0
 20 25  1  0
 25 26  1  0
 19 27  1  0
  6  2  1  0
 13  8  1  0
 22 17  1  0
M  END
$$$$
