
     RDKit          3D

 27 29  0  0  0  0  0  0  0  0999 V2000
   -0.4295    1.3879    9.7900 C   0  0  0  0  0  0  0  0  0  0  0  0
    0.9249    1.6953   10.2986 C   0  0  0  0  0  0  0  0  0  0  0  0
    1.0279    1.6648   11.8098 C   0  0  0  0  0  0  0  0  0  0  0  0
    2.5110    1.4454   12.0325 C   0  0  0  0  0  0  0  0  0  0  0  0
    3.0940    1.1813   10.6480 C   0  0  0  0  0  0  0  0  0  0  0  0
    1.9762    0.8055    9.8279 N   0  0  0  0  0  0  0  0  0  0  0  0
    1.6688   -0.5611    9.9637 C   0  0  0  0  0  0  0  0  0  0  0  0
    2.4603   -1.3784    9.0191 C   0  0  0  0  0  0  0  0  0  0  0  0
    3.7435   -1.8159    9.2411 C   0  0  0  0  0  0  0  0  0  0  0  0
    4.4103   -2.5701    8.2964 C   0  0  0  0  0  0  0  0  0  0  0  0
    3.8360   -2.9209    7.0979 C   0  0  0  0  0  0  0  0  0  0  0  0
    2.5488   -2.4877    6.8645 C   0  0  0  0  0  0  0  0  0  0  0  0
    1.8865   -1.7423    7.7954 C   0  0  0  0  0  0  0  0  0  0  0  0
    0.7119    2.9755   12.3992 N   0  0  0  0  0  0  0  0  0  0  0  0
   -0.6108    3.3440   12.6831 C   0  0  0  0  0  0  0  0  0  0  0  0
   -1.4783    2.4322   12.3954 O   0  0  0  0  0  0  0  0  0  0  0  0
   -1.0707    4.6032   13.2463 C   0  0  0  0  0  0  0  0  0  0  0  0
   -0.1304    5.6056   13.5309 C   0  0  0  0  0  0  0  0  0  0  0  0
   -0.4954    6.8154   14.0676 C   0  0  0  0  0  0  0  0  0  0  0  0
   -1.8083    7.1156   14.3581 C   0  0  0  0  0  0  0  0  0  0  0  0
   -2.7337    6.1415   14.0829 C   0  0  0  0  0  0  0  0  0  0  0  0
   -2.3668    4.8978   13.5322 C   0  0  0  0  0  0  0  0  0  0  0  0
   -3.3736    3.9766   13.2890 O   0  0  0  0  0  0  0  0  0  0  0  0
   -4.7153    4.1752   13.6290 C   0  0  0  0  0  0  0  0  0  0  0  0
   -2.1641    8.3800   14.9183 N   0  0  0  0  0  0  0  0  0  0  0  0
   -3.5160    8.7366   15.2803 C   0  0  0  0  0  0  0  0  0  0  0  0
    0.6923    8.0623   14.4191 Cl  0  0  0  0  0  0  0  0  0  0  0  0
  1  2  1  0
  2  3  1  0
  3  4  1  0
  4  5  1  0
  5  6  1  0
  6  7  1  0
  7  8  1  0
  8  9  2  0
  9 10  1  0
 10 11  2  0
 11 12  1  0
 12 13  2  0
  3 14  1  0
 14 15  1  0
 15 16  2  0
 15 17  1  0
 17 18  2  0
 18 19  1  0
 19 20  2  0
 20 21  1  0
 21 22  2  0
 22 23  1  0
 23 24  1  0
 20 25  1  0
 25 26  1  0
 19 27  1  0
  6  2  1  0
 13  8  1  0
 22 17  1  0
M  END
$$$$
