
     RDKit          3D

 27 29  0  0  0  0  0  0  0  0999 V2000
    2.3855    0.8594   12.6855 C   0  0  0  0  0  0  0  0  0  0  0  0
    1.3756    0.6117   11.6336 C   0  0  0  0  0  0  0  0  0  0  0  0
    1.0898    1.8221   10.7686 C   0  0  0  0  0  0  0  0  0  0  0  0
    0.5183    1.1983    9.5111 C   0  0  0  0  0  0  0  0  0  0  0  0
    0.7010   -0.3058    9.6858 C   0  0  0  0  0  0  0  0  0  0  0  0
    1.7084   -0.4533   10.6990 N   0  0  0  0  0  0  0  0  0  0  0  0
    3.0049   -0.3542   10.1605 C   0  0  0  0  0  0  0  0  0  0  0  0
    3.2458   -1.4165    9.1605 C   0  0  0  0  0  0  0  0  0  0  0  0
    3.3931   -1.2078    7.8107 C   0  0  0  0  0  0  0  0  0  0  0  0
    3.6079   -2.2638    6.9479 C   0  0  0  0  0  0  0  0  0  0  0  0
    3.6855   -3.5649    7.3845 C   0  0  0  0  0  0  0  0  0  0  0  0
    3.5394   -3.7861    8.7368 C   0  0  0  0  0  0  0  0  0  0  0  0
    3.3271   -2.7454    9.5927 C   0  0  0  0  0  0  0  0  0  0  0  0
    0.0185    2.6535   11.3400 N   0  0  0  0  0  0  0  0  0  0  0  0
   -0.4648    3.7817   10.6622 C   0  0  0  0  0  0  0  0  0  0  0  0
   -0.0276    3.8889    9.4522 O   0  0  0  0  0  0  0  0  0  0  0  0
   -1.3722    4.7944   11.1771 C   0  0  0  0  0  0  0  0  0  0  0  0
   -1.2183    5.2374   12.5000 C   0  0  0  0  0  0  0  0  0  0  0  0
   -2.0428    6.1870   13.0507 C   0  0  0  0  0  0  0  0  0  0  0  0
   -3.0707    6.7609   12.3349 C   0  0  0  0  0  0  0  0  0  0  0  0
   -3.2279    6.3338   11.0411 C   0  0  0  0  0  0  0  0  0  0  0  0
   -2.3860    5.3599   10.4692 C   0  0  0  0  0  0  0  0  0  0  0  0
   -2.6234    4.9924    9.1540 O   0  0  0  0  0  0  0  0  0  0  0  0
   -3.5502    5.6247    8.3195 C   0  0  0  0  0  0  0  0  0  0  0  0
   -3.9172    7.7452   12.9295 N   0  0  0  0  0  0  0  0  0  0  0  0
   -5.0076    8.3830   12.2295 C   0  0  0  0  0  0  0  0  0  0  0  0
   -1.8391    6.7329   14.7088 Cl  0  0  0  0  0  0  0  0  0  0  0  0
  1  2  1  0
  2  3  1  0
  3  4  1  0
  4  5  1  0
  5  6  1  0
  6  7  1  0
  7  8  1  0
  8  9  2  0
  9 10  1  0
 10 11  2  0
 11 12  1  0
 12 13  2  0
  3 14  1  0
 14 15  1  0
 15 16  2  0
 15 17  1  0
 17 18  2  0
 18 19  1  0
 19 20  2  0
 20 21  1  0
 21 22  2  0
 22 23  1  0
 23 24  1  0
 20 25  1  0
 25 26  1  0
 19 27  1  0
  6  2  1  0
 13  8  1  0
 22 17  1  0
M  END
$$$$
