
     RDKit          3D

 27 29  0  0  0  0  0  0  0  0999 V2000
    0.4961    2.6543    7.9604 C   0  0  0  0  0  0  0  0  0  0  0  0
    1.0913    2.0777    9.1855 C   0  0  0  0  0  0  0  0  0  0  0  0
    0.0753    1.4494   10.1171 C   0  0  0  0  0  0  0  0  0  0  0  0
    0.9246    0.4946   10.9320 C   0  0  0  0  0  0  0  0  0  0  0  0
    2.3019    0.5176   10.2771 C   0  0  0  0  0  0  0  0  0  0  0  0
    2.0888    1.0426    8.9572 N   0  0  0  0  0  0  0  0  0  0  0  0
    1.6745    0.0403    8.0603 C   0  0  0  0  0  0  0  0  0  0  0  0
    2.5768   -1.1298    8.1200 C   0  0  0  0  0  0  0  0  0  0  0  0
    3.8955   -1.0878    8.5027 C   0  0  0  0  0  0  0  0  0  0  0  0
    4.6667   -2.2327    8.5207 C   0  0  0  0  0  0  0  0  0  0  0  0
    4.1658   -3.4614    8.1621 C   0  0  0  0  0  0  0  0  0  0  0  0
    2.8438   -3.5154    7.7765 C   0  0  0  0  0  0  0  0  0  0  0  0
    2.0784   -2.3865    7.7574 C   0  0  0  0  0  0  0  0  0  0  0  0
   -0.4667    2.4332   11.0678 N   0  0  0  0  0  0  0  0  0  0  0  0
    0.2342    2.7808   12.2314 C   0  0  0  0  0  0  0  0  0  0  0  0
    1.2752    2.0493   12.4501 O   0  0  0  0  0  0  0  0  0  0  0  0
   -0.0924    3.8424   13.1698 C   0  0  0  0  0  0  0  0  0  0  0  0
   -1.2350    4.6249   12.9420 C   0  0  0  0  0  0  0  0  0  0  0  0
   -1.5985    5.6458   13.7850 C   0  0  0  0  0  0  0  0  0  0  0  0
   -0.8612    5.9612   14.9053 C   0  0  0  0  0  0  0  0  0  0  0  0
    0.2570    5.2011   15.1354 C   0  0  0  0  0  0  0  0  0  0  0  0
    0.6364    4.1522   14.2750 C   0  0  0  0  0  0  0  0  0  0  0  0
    1.7830    3.4402   14.5907 O   0  0  0  0  0  0  0  0  0  0  0  0
    2.5619    3.6748   15.7279 C   0  0  0  0  0  0  0  0  0  0  0  0
   -1.2574    7.0291   15.7665 N   0  0  0  0  0  0  0  0  0  0  0  0
   -0.5059    7.4299   16.9328 C   0  0  0  0  0  0  0  0  0  0  0  0
   -3.0321    6.6182   13.4881 Cl  0  0  0  0  0  0  0  0  0  0  0  0
  1  2  1  0
  2  3  1  0
  3  4  1  0
  4  5  1  0
  5  6  1  0
  6  7  1  0
  7  8  1  0
  8  9  2  0
  9 10  1  0
 10 11  2  0
 11 12  1  0
 12 13  2  0
  3 14  1  0
 14 15  1  0
 15 16  2  0
 15 17  1  0
 17 18  2  0
 18 19  1  0
 19 20  2  0
 20 21  1  0
 21 22  2  0
 22 23  1  0
 23 24  1  0
 20 25  1  0
 25 26  1  0
 19 27  1  0
  6  2  1  0
 13  8  1  0
 22 17  1  0
M  END
$$$$
