
     RDKit          3D

 27 29  0  0  0  0  0  0  0  0999 V2000
    2.0046   -0.3893   11.7585 C   0  0  0  0  0  0  0  0  0  0  0  0
    1.0157    0.3210   10.9187 C   0  0  0  0  0  0  0  0  0  0  0  0
    1.1459    1.8294   10.9710 C   0  0  0  0  0  0  0  0  0  0  0  0
    0.4711    2.2611    9.6844 C   0  0  0  0  0  0  0  0  0  0  0  0
    0.1857    0.9703    8.9236 C   0  0  0  0  0  0  0  0  0  0  0  0
    1.0553   -0.0151    9.5031 N   0  0  0  0  0  0  0  0  0  0  0  0
    2.3448    0.0357    8.9415 C   0  0  0  0  0  0  0  0  0  0  0  0
    2.8129   -1.3160    8.5666 C   0  0  0  0  0  0  0  0  0  0  0  0
    3.4825   -2.1767    9.4021 C   0  0  0  0  0  0  0  0  0  0  0  0
    3.8898   -3.4204    8.9625 C   0  0  0  0  0  0  0  0  0  0  0  0
    3.6515   -3.8613    7.6826 C   0  0  0  0  0  0  0  0  0  0  0  0
    2.9802   -3.0061    6.8357 C   0  0  0  0  0  0  0  0  0  0  0  0
    2.5761   -1.7765    7.2662 C   0  0  0  0  0  0  0  0  0  0  0  0
    0.3489    2.4027   12.0671 N   0  0  0  0  0  0  0  0  0  0  0  0
    0.3649    3.7792   12.3335 C   0  0  0  0  0  0  0  0  0  0  0  0
    0.7866    4.4956   11.3457 O   0  0  0  0  0  0  0  0  0  0  0  0
   -0.0327    4.4404   13.5659 C   0  0  0  0  0  0  0  0  0  0  0  0
    0.9540    4.7858   14.5024 C   0  0  0  0  0  0  0  0  0  0  0  0
    0.6477    5.4070   15.6877 C   0  0  0  0  0  0  0  0  0  0  0  0
   -0.6486    5.7280   16.0266 C   0  0  0  0  0  0  0  0  0  0  0  0
   -1.6192    5.3941   15.1168 C   0  0  0  0  0  0  0  0  0  0  0  0
   -1.3125    4.7565   13.8987 C   0  0  0  0  0  0  0  0  0  0  0  0
   -2.3617    4.4587   13.0432 O   0  0  0  0  0  0  0  0  0  0  0  0
   -3.7084    4.6746   13.3513 C   0  0  0  0  0  0  0  0  0  0  0  0
   -0.9437    6.3721   17.2664 N   0  0  0  0  0  0  0  0  0  0  0  0
   -2.2839    6.7045   17.6899 C   0  0  0  0  0  0  0  0  0  0  0  0
    1.8932    5.8341   16.8518 Cl  0  0  0  0  0  0  0  0  0  0  0  0
  1  2  1  0
  2  3  1  0
  3  4  1  0
  4  5  1  0
  5  6  1  0
  6  7  1  0
  7  8  1  0
  8  9  2  0
  9 10  1  0
 10 11  2  0
 11 12  1  0
 12 13  2  0
  3 14  1  0
 14 15  1  0
 15 16  2  0
 15 17  1  0
 17 18  2  0
 18 19  1  0
 19 20  2  0
 20 21  1  0
 21 22  2  0
 22 23  1  0
 23 24  1  0
 20 25  1  0
 25 26  1  0
 19 27  1  0
  6  2  1  0
 13  8  1  0
 22 17  1  0
M  END
$$$$
