
     RDKit          3D

 27 29  0  0  0  0  0  0  0  0999 V2000
   -0.7962    2.2652    9.1421 C   0  0  0  0  0  0  0  0  0  0  0  0
    0.6334    2.1303    9.4969 C   0  0  0  0  0  0  0  0  0  0  0  0
    0.8681    1.7859   10.9534 C   0  0  0  0  0  0  0  0  0  0  0  0
    2.2543    1.1737   10.9258 C   0  0  0  0  0  0  0  0  0  0  0  0
    2.6120    1.0468    9.4486 C   0  0  0  0  0  0  0  0  0  0  0  0
    1.3617    1.1190    8.7451 N   0  0  0  0  0  0  0  0  0  0  0  0
    0.7179   -0.1316    8.7008 C   0  0  0  0  0  0  0  0  0  0  0  0
    1.6942   -1.2231    8.4954 C   0  0  0  0  0  0  0  0  0  0  0  0
    1.8922   -2.2743    9.3574 C   0  0  0  0  0  0  0  0  0  0  0  0
    2.8345   -3.2465    9.0875 C   0  0  0  0  0  0  0  0  0  0  0  0
    3.6162   -3.2179    7.9573 C   0  0  0  0  0  0  0  0  0  0  0  0
    3.4260   -2.1680    7.0852 C   0  0  0  0  0  0  0  0  0  0  0  0
    2.4960   -1.2054    7.3482 C   0  0  0  0  0  0  0  0  0  0  0  0
    0.9680    2.9956   11.7851 N   0  0  0  0  0  0  0  0  0  0  0  0
    0.8900    2.9239   13.1833 C   0  0  0  0  0  0  0  0  0  0  0  0
    0.8024    1.7191   13.6386 O   0  0  0  0  0  0  0  0  0  0  0  0
    0.8984    4.0343   14.1220 C   0  0  0  0  0  0  0  0  0  0  0  0
    0.0868    5.1500   13.8643 C   0  0  0  0  0  0  0  0  0  0  0  0
    0.0503    6.2341   14.7058 C   0  0  0  0  0  0  0  0  0  0  0  0
    0.8097    6.2892   15.8540 C   0  0  0  0  0  0  0  0  0  0  0  0
    1.6057    5.2028   16.1135 C   0  0  0  0  0  0  0  0  0  0  0  0
    1.6484    4.0869   15.2548 C   0  0  0  0  0  0  0  0  0  0  0  0
    2.4840    3.0366   15.6012 O   0  0  0  0  0  0  0  0  0  0  0  0
    3.2649    3.0072   16.7607 C   0  0  0  0  0  0  0  0  0  0  0  0
    0.7573    7.4285   16.7133 N   0  0  0  0  0  0  0  0  0  0  0  0
    1.4966    7.5257   17.9501 C   0  0  0  0  0  0  0  0  0  0  0  0
   -0.9707    7.6250   14.3713 Cl  0  0  0  0  0  0  0  0  0  0  0  0
  1  2  1  0
  2  3  1  0
  3  4  1  0
  4  5  1  0
  5  6  1  0
  6  7  1  0
  7  8  1  0
  8  9  2  0
  9 10  1  0
 10 11  2  0
 11 12  1  0
 12 13  2  0
  3 14  1  0
 14 15  1  0
 15 16  2  0
 15 17  1  0
 17 18  2  0
 18 19  1  0
 19 20  2  0
 20 21  1  0
 21 22  2  0
 22 23  1  0
 23 24  1  0
 20 25  1  0
 25 26  1  0
 19 27  1  0
  6  2  1  0
 13  8  1  0
 22 17  1  0
M  END
$$$$
