
     RDKit          3D

 27 29  0  0  0  0  0  0  0  0999 V2000
    2.5701    1.6614   10.1424 C   0  0  0  0  0  0  0  0  0  0  0  0
    2.0434    0.6633   11.0985 C   0  0  0  0  0  0  0  0  0  0  0  0
    0.6062    0.9130   11.5074 C   0  0  0  0  0  0  0  0  0  0  0  0
    0.1582   -0.4553   11.9810 C   0  0  0  0  0  0  0  0  0  0  0  0
    1.3019   -1.4007   11.6285 C   0  0  0  0  0  0  0  0  0  0  0  0
    2.0711   -0.7140   10.6285 N   0  0  0  0  0  0  0  0  0  0  0  0
    1.5253   -0.8883    9.3431 C   0  0  0  0  0  0  0  0  0  0  0  0
    2.3746   -1.7790    8.5234 C   0  0  0  0  0  0  0  0  0  0  0  0
    2.9178   -2.9647    8.9550 C   0  0  0  0  0  0  0  0  0  0  0  0
    3.7077   -3.7297    8.1203 C   0  0  0  0  0  0  0  0  0  0  0  0
    3.9909   -3.3537    6.8289 C   0  0  0  0  0  0  0  0  0  0  0  0
    3.4510   -2.1659    6.3851 C   0  0  0  0  0  0  0  0  0  0  0  0
    2.6701   -1.4072    7.2066 C   0  0  0  0  0  0  0  0  0  0  0  0
    0.5242    1.8016   12.6774 N   0  0  0  0  0  0  0  0  0  0  0  0
    0.5185    3.1961   12.5310 C   0  0  0  0  0  0  0  0  0  0  0  0
    1.0438    3.6054   11.4250 O   0  0  0  0  0  0  0  0  0  0  0  0
   -0.0020    4.1761   13.4705 C   0  0  0  0  0  0  0  0  0  0  0  0
   -1.3695    4.1576   13.7861 C   0  0  0  0  0  0  0  0  0  0  0  0
   -1.9274    5.0566   14.6610 C   0  0  0  0  0  0  0  0  0  0  0  0
   -1.1754    6.0305   15.2808 C   0  0  0  0  0  0  0  0  0  0  0  0
    0.1621    6.0556   14.9780 C   0  0  0  0  0  0  0  0  0  0  0  0
    0.7416    5.1365   14.0814 C   0  0  0  0  0  0  0  0  0  0  0  0
    2.1022    5.2412   13.8384 O   0  0  0  0  0  0  0  0  0  0  0  0
    2.9397    6.1707   14.4627 C   0  0  0  0  0  0  0  0  0  0  0  0
   -1.7780    6.9565   16.1855 N   0  0  0  0  0  0  0  0  0  0  0  0
   -1.0268    7.9278   16.9458 C   0  0  0  0  0  0  0  0  0  0  0  0
   -3.6416    5.0222   15.0476 Cl  0  0  0  0  0  0  0  0  0  0  0  0
  1  2  1  0
  2  3  1  0
  3  4  1  0
  4  5  1  0
  5  6  1  0
  6  7  1  0
  7  8  1  0
  8  9  2  0
  9 10  1  0
 10 11  2  0
 11 12  1  0
 12 13  2  0
  3 14  1  0
 14 15  1  0
 15 16  2  0
 15 17  1  0
 17 18  2  0
 18 19  1  0
 19 20  2  0
 20 21  1  0
 21 22  2  0
 22 23  1  0
 23 24  1  0
 20 25  1  0
 25 26  1  0
 19 27  1  0
  6  2  1  0
 13  8  1  0
 22 17  1  0
M  END
$$$$
