
     RDKit          3D

 27 29  0  0  0  0  0  0  0  0999 V2000
    0.0307    0.7871   12.2195 C   0  0  0  0  0  0  0  0  0  0  0  0
    0.0926    0.8330   10.7424 C   0  0  0  0  0  0  0  0  0  0  0  0
    0.8988    1.9971   10.2039 C   0  0  0  0  0  0  0  0  0  0  0  0
    1.2718    1.5218    8.8138 C   0  0  0  0  0  0  0  0  0  0  0  0
    0.8156    0.0680    8.7467 C   0  0  0  0  0  0  0  0  0  0  0  0
    0.6638   -0.3485   10.1129 N   0  0  0  0  0  0  0  0  0  0  0  0
    1.8902   -0.7547   10.6713 C   0  0  0  0  0  0  0  0  0  0  0  0
    2.7571   -1.3784    9.6485 C   0  0  0  0  0  0  0  0  0  0  0  0
    2.3987   -1.5973    8.3405 C   0  0  0  0  0  0  0  0  0  0  0  0
    3.2728   -2.1951    7.4549 C   0  0  0  0  0  0  0  0  0  0  0  0
    4.5329   -2.5991    7.8265 C   0  0  0  0  0  0  0  0  0  0  0  0
    4.9034   -2.3843    9.1364 C   0  0  0  0  0  0  0  0  0  0  0  0
    4.0426   -1.7939   10.0146 C   0  0  0  0  0  0  0  0  0  0  0  0
    0.0628    3.1939   10.0200 N   0  0  0  0  0  0  0  0  0  0  0  0
   -0.8842    3.5729   10.9822 C   0  0  0  0  0  0  0  0  0  0  0  0
   -0.7943    2.9139   12.0887 O   0  0  0  0  0  0  0  0  0  0  0  0
   -1.9104    4.5944   10.8504 C   0  0  0  0  0  0  0  0  0  0  0  0
   -2.3307    4.9759    9.5667 C   0  0  0  0  0  0  0  0  0  0  0  0
   -3.2914    5.9367    9.3703 C   0  0  0  0  0  0  0  0  0  0  0  0
   -3.8995    6.5830   10.4242 C   0  0  0  0  0  0  0  0  0  0  0  0
   -3.4947    6.2160   11.6823 C   0  0  0  0  0  0  0  0  0  0  0  0
   -2.5096    5.2311   11.8916 C   0  0  0  0  0  0  0  0  0  0  0  0
   -2.1666    4.9281   13.2000 O   0  0  0  0  0  0  0  0  0  0  0  0
   -2.7027    5.5725   14.3191 C   0  0  0  0  0  0  0  0  0  0  0  0
   -4.8948    7.5811   10.1958 N   0  0  0  0  0  0  0  0  0  0  0  0
   -5.5331    8.3244   11.2569 C   0  0  0  0  0  0  0  0  0  0  0  0
   -3.8086    6.4050    7.7572 Cl  0  0  0  0  0  0  0  0  0  0  0  0
  1  2  1  0
  2  3  1  0
  3  4  1  0
  4  5  1  0
  5  6  1  0
  6  7  1  0
  7  8  1  0
  8  9  2  0
  9 10  1  0
 10 11  2  0
 11 12  1  0
 12 13  2  0
  3 14  1  0
 14 15  1  0
 15 16  2  0
 15 17  1  0
 17 18  2  0
 18 19  1  0
 19 20  2  0
 20 21  1  0
 21 22  2  0
 22 23  1  0
 23 24  1  0
 20 25  1  0
 25 26  1  0
 19 27  1  0
  6  2  1  0
 13  8  1  0
 22 17  1  0
M  END
$$$$
