
     RDKit          3D

 27 29  0  0  0  0  0  0  0  0999 V2000
    1.4560    3.9332   11.6361 C   0  0  0  0  0  0  0  0  0  0  0  0
    0.1553    3.2305   11.5891 C   0  0  0  0  0  0  0  0  0  0  0  0
    0.2210    1.7973   12.0756 C   0  0  0  0  0  0  0  0  0  0  0  0
   -1.2189    1.5137   12.4540 C   0  0  0  0  0  0  0  0  0  0  0  0
   -1.9407    2.8519   12.3335 C   0  0  0  0  0  0  0  0  0  0  0  0
   -0.9069    3.8484   12.3692 N   0  0  0  0  0  0  0  0  0  0  0  0
   -0.5346    4.1633   13.6894 C   0  0  0  0  0  0  0  0  0  0  0  0
   -0.9238    5.5478   14.0334 C   0  0  0  0  0  0  0  0  0  0  0  0
   -0.2023    6.6714   13.7102 C   0  0  0  0  0  0  0  0  0  0  0  0
   -0.6395    7.9273   14.0806 C   0  0  0  0  0  0  0  0  0  0  0  0
   -1.8047    8.1217   14.7835 C   0  0  0  0  0  0  0  0  0  0  0  0
   -2.5368    7.0016   15.1131 C   0  0  0  0  0  0  0  0  0  0  0  0
   -2.1082    5.7588   14.7489 C   0  0  0  0  0  0  0  0  0  0  0  0
    0.5501    0.8702   10.9813 N   0  0  0  0  0  0  0  0  0  0  0  0
    1.8742    0.4812   10.7327 C   0  0  0  0  0  0  0  0  0  0  0  0
    2.7435    1.0993   11.4600 O   0  0  0  0  0  0  0  0  0  0  0  0
    2.3334   -0.5101    9.7733 C   0  0  0  0  0  0  0  0  0  0  0  0
    3.0488   -1.6254   10.2360 C   0  0  0  0  0  0  0  0  0  0  0  0
    3.5154   -2.5960    9.3845 C   0  0  0  0  0  0  0  0  0  0  0  0
    3.3077   -2.5309    8.0241 C   0  0  0  0  0  0  0  0  0  0  0  0
    2.6092   -1.4441    7.5635 C   0  0  0  0  0  0  0  0  0  0  0  0
    2.1274   -0.4442    8.4310 C   0  0  0  0  0  0  0  0  0  0  0  0
    1.4322    0.6165    7.8716 O   0  0  0  0  0  0  0  0  0  0  0  0
    1.2417    0.7899    6.4972 C   0  0  0  0  0  0  0  0  0  0  0  0
    3.8045   -3.5511    7.1574 N   0  0  0  0  0  0  0  0  0  0  0  0
    3.1644   -3.9210    5.9167 C   0  0  0  0  0  0  0  0  0  0  0  0
    4.4099   -3.9879    9.9773 Cl  0  0  0  0  0  0  0  0  0  0  0  0
  1  2  1  0
  2  3  1  0
  3  4  1  0
  4  5  1  0
  5  6  1  0
  6  7  1  0
  7  8  1  0
  8  9  2  0
  9 10  1  0
 10 11  2  0
 11 12  1  0
 12 13  2  0
  3 14  1  0
 14 15  1  0
 15 16  2  0
 15 17  1  0
 17 18  2  0
 18 19  1  0
 19 20  2  0
 20 21  1  0
 21 22  2  0
 22 23  1  0
 23 24  1  0
 20 25  1  0
 25 26  1  0
 19 27  1  0
  6  2  1  0
 13  8  1  0
 22 17  1  0
M  END
$$$$
