
     RDKit          3D

 27 29  0  0  0  0  0  0  0  0999 V2000
    0.2167   -0.4852   11.0592 C   0  0  0  0  0  0  0  0  0  0  0  0
    0.5432    0.1670    9.7725 C   0  0  0  0  0  0  0  0  0  0  0  0
    1.0099    1.6008    9.9193 C   0  0  0  0  0  0  0  0  0  0  0  0
    1.7785    1.8282    8.6329 C   0  0  0  0  0  0  0  0  0  0  0  0
    1.8474    0.4635    7.9554 C   0  0  0  0  0  0  0  0  0  0  0  0
    1.5809   -0.4926    8.9936 N   0  0  0  0  0  0  0  0  0  0  0  0
    2.7408   -0.7955    9.7309 C   0  0  0  0  0  0  0  0  0  0  0  0
    3.3653   -2.0451    9.2460 C   0  0  0  0  0  0  0  0  0  0  0  0
    3.9845   -2.1945    8.0288 C   0  0  0  0  0  0  0  0  0  0  0  0
    4.5347   -3.4044    7.6555 C   0  0  0  0  0  0  0  0  0  0  0  0
    4.4948   -4.5116    8.4690 C   0  0  0  0  0  0  0  0  0  0  0  0
    3.8763   -4.3732    9.6927 C   0  0  0  0  0  0  0  0  0  0  0  0
    3.3314   -3.1795   10.0653 C   0  0  0  0  0  0  0  0  0  0  0  0
   -0.1210    2.5420    9.8958 N   0  0  0  0  0  0  0  0  0  0  0  0
   -0.3123    3.4729   10.9267 C   0  0  0  0  0  0  0  0  0  0  0  0
    0.5903    3.4218   11.8483 O   0  0  0  0  0  0  0  0  0  0  0  0
   -1.3871    4.4452   11.0444 C   0  0  0  0  0  0  0  0  0  0  0  0
   -1.9970    4.9306    9.8773 C   0  0  0  0  0  0  0  0  0  0  0  0
   -3.0134    5.8527    9.9161 C   0  0  0  0  0  0  0  0  0  0  0  0
   -3.4941    6.3554   11.1054 C   0  0  0  0  0  0  0  0  0  0  0  0
   -2.9036    5.8860   12.2509 C   0  0  0  0  0  0  0  0  0  0  0  0
   -1.8603    4.9400   12.2190 C   0  0  0  0  0  0  0  0  0  0  0  0
   -1.3264    4.5258   13.4292 O   0  0  0  0  0  0  0  0  0  0  0  0
   -1.7847    4.9605   14.6768 C   0  0  0  0  0  0  0  0  0  0  0  0
   -4.5508    7.3158   11.1212 N   0  0  0  0  0  0  0  0  0  0  0  0
   -5.1707    7.7952   12.3343 C   0  0  0  0  0  0  0  0  0  0  0  0
   -3.7688    6.4524    8.4468 Cl  0  0  0  0  0  0  0  0  0  0  0  0
  1  2  1  0
  2  3  1  0
  3  4  1  0
  4  5  1  0
  5  6  1  0
  6  7  1  0
  7  8  1  0
  8  9  2  0
  9 10  1  0
 10 11  2  0
 11 12  1  0
 12 13  2  0
  3 14  1  0
 14 15  1  0
 15 16  2  0
 15 17  1  0
 17 18  2  0
 18 19  1  0
 19 20  2  0
 20 21  1  0
 21 22  2  0
 22 23  1  0
 23 24  1  0
 20 25  1  0
 25 26  1  0
 19 27  1  0
  6  2  1  0
 13  8  1  0
 22 17  1  0
M  END
$$$$
