
     RDKit          3D

 32 34  0  0  0  0  0  0  0  0999 V2000
    1.0145    6.1200    8.9341 C   0  0  0  0  0  0  0  0  0  0  0  0
    1.5441    5.9799   10.3372 C   0  0  0  0  0  0  0  0  0  0  0  0
    0.8491    4.9061   11.0449 N   0  0  0  0  0  0  0  0  0  0  0  0
   -0.4563    5.2109   11.5537 C   0  0  0  0  0  0  0  0  0  0  0  0
   -0.5205    6.1082   12.7118 C   0  0  0  0  0  0  0  0  0  0  0  0
    0.6230    6.7107   13.2053 C   0  0  0  0  0  0  0  0  0  0  0  0
    0.5998    7.5579   14.2445 N   0  0  0  0  0  0  0  0  0  0  0  0
   -0.5337    7.8871   14.8858 C   0  0  0  0  0  0  0  0  0  0  0  0
   -1.6867    7.2990   14.4112 C   0  0  0  0  0  0  0  0  0  0  0  0
   -1.7200    6.4240   13.3492 C   0  0  0  0  0  0  0  0  0  0  0  0
    1.5065    3.6567   11.1270 C   0  0  0  0  0  0  0  0  0  0  0  0
    0.9049    2.7124   11.6932 O   0  0  0  0  0  0  0  0  0  0  0  0
    2.8497    3.4601   10.5701 C   0  0  0  0  0  0  0  0  0  0  0  0
    3.0289    2.1887    9.9027 N   0  0  0  0  0  0  0  0  0  0  0  0
    2.0753    1.7875    8.9234 C   0  0  0  0  0  0  0  0  0  0  0  0
    0.9877    1.0857    9.3847 C   0  0  0  0  0  0  0  0  0  0  0  0
    0.0566    0.6747    8.5105 N   0  0  0  0  0  0  0  0  0  0  0  0
    0.1285    0.9139    7.1948 C   0  0  0  0  0  0  0  0  0  0  0  0
    1.2086    1.6152    6.7123 C   0  0  0  0  0  0  0  0  0  0  0  0
    2.1995    2.0613    7.5835 C   0  0  0  0  0  0  0  0  0  0  0  0
   -0.8709    0.4548    6.3738 O   0  0  0  0  0  0  0  0  0  0  0  0
   -1.6293   -0.6968    6.5146 C   0  0  0  0  0  0  0  0  0  0  0  0
    4.3309    1.1171   10.1960 S   0  0  0  0  0  6  0  0  0  0  0  0
    4.7960    0.6193    8.8442 O   0  0  0  0  0  0  0  0  0  0  0  0
    5.4580    1.9331   10.7815 O   0  0  0  0  0  0  0  0  0  0  0  0
    3.9743   -0.1877   11.2694 C   0  0  0  0  0  0  0  0  0  0  0  0
    3.4854   -1.3753   10.7186 C   0  0  0  0  0  0  0  0  0  0  0  0
    3.1702   -2.4636   11.4951 C   0  0  0  0  0  0  0  0  0  0  0  0
    3.3499   -2.3591   12.8558 C   0  0  0  0  0  0  0  0  0  0  0  0
    3.8313   -1.1924   13.4075 C   0  0  0  0  0  0  0  0  0  0  0  0
    4.1545   -0.0823   12.6345 C   0  0  0  0  0  0  0  0  0  0  0  0
    4.6684    1.1563   13.2463 C   0  0  0  0  0  0  0  0  0  0  0  0
  1  2  1  0
  2  3  1  0
  3  4  1  0
  4  5  1  0
  5  6  2  0
  6  7  1  0
  7  8  2  0
  8  9  1  0
  9 10  2  0
  3 11  1  0
 11 12  2  0
 11 13  1  0
 13 14  1  0
 14 15  1  0
 15 16  2  0
 16 17  1  0
 17 18  2  0
 18 19  1  0
 19 20  2  0
 18 21  1  0
 21 22  1  0
 14 23  1  0
 23 24  2  0
 23 25  2  0
 23 26  1  0
 26 27  2  0
 27 28  1  0
 28 29  2  0
 29 30  1  0
 30 31  2  0
 31 32  1  0
 10  5  1  0
 20 15  1  0
 31 26  1  0
M  END
$$$$
