
     RDKit          3D

 32 34  0  0  0  0  0  0  0  0999 V2000
   -0.6117    4.0231   10.8986 C   0  0  0  0  0  0  0  0  0  0  0  0
    0.3047    3.4641    9.8419 C   0  0  0  0  0  0  0  0  0  0  0  0
    1.1853    4.5077    9.3198 N   0  0  0  0  0  0  0  0  0  0  0  0
    0.5525    5.6120    8.6594 C   0  0  0  0  0  0  0  0  0  0  0  0
    0.2760    5.4546    7.2279 C   0  0  0  0  0  0  0  0  0  0  0  0
    0.4169    4.2246    6.6103 C   0  0  0  0  0  0  0  0  0  0  0  0
    0.1470    4.0361    5.3103 N   0  0  0  0  0  0  0  0  0  0  0  0
   -0.2808    5.0252    4.5082 C   0  0  0  0  0  0  0  0  0  0  0  0
   -0.4292    6.2604    5.1020 C   0  0  0  0  0  0  0  0  0  0  0  0
   -0.1672    6.5092    6.4302 C   0  0  0  0  0  0  0  0  0  0  0  0
    2.5724    4.3554    9.5490 C   0  0  0  0  0  0  0  0  0  0  0  0
    3.2831    5.3893    9.5597 O   0  0  0  0  0  0  0  0  0  0  0  0
    3.1716    3.0342    9.7692 C   0  0  0  0  0  0  0  0  0  0  0  0
    2.2709    2.0728   10.3680 N   0  0  0  0  0  0  0  0  0  0  0  0
    1.4268    1.3017    9.5182 C   0  0  0  0  0  0  0  0  0  0  0  0
    2.0567    0.4243    8.6687 C   0  0  0  0  0  0  0  0  0  0  0  0
    1.3167   -0.3269    7.8389 N   0  0  0  0  0  0  0  0  0  0  0  0
   -0.0204   -0.2691    7.7920 C   0  0  0  0  0  0  0  0  0  0  0  0
   -0.6705    0.6021    8.6343 C   0  0  0  0  0  0  0  0  0  0  0  0
    0.0573    1.4015    9.5124 C   0  0  0  0  0  0  0  0  0  0  0  0
   -0.6962   -1.0752    6.9105 O   0  0  0  0  0  0  0  0  0  0  0  0
   -0.2166   -1.6598    5.7488 C   0  0  0  0  0  0  0  0  0  0  0  0
    2.1504    1.7767   12.0495 S   0  0  0  0  0  6  0  0  0  0  0  0
    2.6139    3.0380   12.7464 O   0  0  0  0  0  0  0  0  0  0  0  0
    0.6849    1.6049   12.3690 O   0  0  0  0  0  0  0  0  0  0  0  0
    3.0073    0.3857   12.6087 C   0  0  0  0  0  0  0  0  0  0  0  0
    4.3445    0.5452   12.9815 C   0  0  0  0  0  0  0  0  0  0  0  0
    5.1057   -0.5051   13.4334 C   0  0  0  0  0  0  0  0  0  0  0  0
    4.5120   -1.7444   13.5140 C   0  0  0  0  0  0  0  0  0  0  0  0
    3.1944   -1.9109   13.1487 C   0  0  0  0  0  0  0  0  0  0  0  0
    2.4114   -0.8575   12.6892 C   0  0  0  0  0  0  0  0  0  0  0  0
    1.0030   -1.0586   12.3036 C   0  0  0  0  0  0  0  0  0  0  0  0
  1  2  1  0
  2  3  1  0
  3  4  1  0
  4  5  1  0
  5  6  2  0
  6  7  1  0
  7  8  2  0
  8  9  1  0
  9 10  2  0
  3 11  1  0
 11 12  2  0
 11 13  1  0
 13 14  1  0
 14 15  1  0
 15 16  2  0
 16 17  1  0
 17 18  2  0
 18 19  1  0
 19 20  2  0
 18 21  1  0
 21 22  1  0
 14 23  1  0
 23 24  2  0
 23 25  2  0
 23 26  1  0
 26 27  2  0
 27 28  1  0
 28 29  2  0
 29 30  1  0
 30 31  2  0
 31 32  1  0
 10  5  1  0
 20 15  1  0
 31 26  1  0
M  END
$$$$
