
     RDKit          3D

 32 34  0  0  0  0  0  0  0  0999 V2000
    4.4022    3.3517   12.9859 C   0  0  0  0  0  0  0  0  0  0  0  0
    3.3577    2.2685   12.9181 C   0  0  0  0  0  0  0  0  0  0  0  0
    3.6673    1.3210   11.8488 N   0  0  0  0  0  0  0  0  0  0  0  0
    4.6116    0.2876   12.1589 C   0  0  0  0  0  0  0  0  0  0  0  0
    4.1503   -0.7830   13.0485 C   0  0  0  0  0  0  0  0  0  0  0  0
    3.8060   -0.5140   14.3613 C   0  0  0  0  0  0  0  0  0  0  0  0
    3.3541   -1.4613   15.1961 N   0  0  0  0  0  0  0  0  0  0  0  0
    3.2006   -2.7426   14.8231 C   0  0  0  0  0  0  0  0  0  0  0  0
    3.5372   -3.0345   13.5185 C   0  0  0  0  0  0  0  0  0  0  0  0
    4.0047   -2.1022   12.6203 C   0  0  0  0  0  0  0  0  0  0  0  0
    2.9792    1.4833   10.6241 C   0  0  0  0  0  0  0  0  0  0  0  0
    2.9160    0.4974    9.8506 O   0  0  0  0  0  0  0  0  0  0  0  0
    2.3546    2.7602   10.2599 C   0  0  0  0  0  0  0  0  0  0  0  0
    1.9021    2.8225    8.8869 N   0  0  0  0  0  0  0  0  0  0  0  0
    1.0201    1.8113    8.4086 C   0  0  0  0  0  0  0  0  0  0  0  0
    1.5932    0.8026    7.6721 C   0  0  0  0  0  0  0  0  0  0  0  0
    0.8142   -0.1770    7.1884 N   0  0  0  0  0  0  0  0  0  0  0  0
   -0.5092   -0.2279    7.3866 C   0  0  0  0  0  0  0  0  0  0  0  0
   -1.1027    0.7716    8.1215 C   0  0  0  0  0  0  0  0  0  0  0  0
   -0.3329    1.8087    8.6428 C   0  0  0  0  0  0  0  0  0  0  0  0
   -1.2279   -1.2685    6.8536 O   0  0  0  0  0  0  0  0  0  0  0  0
   -0.7863   -2.2534    5.9838 C   0  0  0  0  0  0  0  0  0  0  0  0
    2.3431    4.0492    7.7776 S   0  0  0  0  0  6  0  0  0  0  0  0
    3.1041    5.0937    8.5659 O   0  0  0  0  0  0  0  0  0  0  0  0
    3.3143    3.4369    6.7972 O   0  0  0  0  0  0  0  0  0  0  0  0
    1.0297    4.7438    6.8977 C   0  0  0  0  0  0  0  0  0  0  0  0
    0.7587    4.2446    5.6210 C   0  0  0  0  0  0  0  0  0  0  0  0
   -0.2625    4.7387    4.8465 C   0  0  0  0  0  0  0  0  0  0  0  0
   -1.0304    5.7569    5.3645 C   0  0  0  0  0  0  0  0  0  0  0  0
   -0.7706    6.2552    6.6221 C   0  0  0  0  0  0  0  0  0  0  0  0
    0.2596    5.7655    7.4177 C   0  0  0  0  0  0  0  0  0  0  0  0
    0.5197    6.3138    8.7609 C   0  0  0  0  0  0  0  0  0  0  0  0
  1  2  1  0
  2  3  1  0
  3  4  1  0
  4  5  1  0
  5  6  2  0
  6  7  1  0
  7  8  2  0
  8  9  1  0
  9 10  2  0
  3 11  1  0
 11 12  2  0
 11 13  1  0
 13 14  1  0
 14 15  1  0
 15 16  2  0
 16 17  1  0
 17 18  2  0
 18 19  1  0
 19 20  2  0
 18 21  1  0
 21 22  1  0
 14 23  1  0
 23 24  2  0
 23 25  2  0
 23 26  1  0
 26 27  2  0
 27 28  1  0
 28 29  2  0
 29 30  1  0
 30 31  2  0
 31 32  1  0
 10  5  1  0
 20 15  1  0
 31 26  1  0
M  END
$$$$
