
     RDKit          3D

 32 34  0  0  0  0  0  0  0  0999 V2000
    4.4402    4.9441    8.1852 C   0  0  0  0  0  0  0  0  0  0  0  0
    3.0587    4.3442    8.1973 C   0  0  0  0  0  0  0  0  0  0  0  0
    2.3528    4.7019    9.4264 N   0  0  0  0  0  0  0  0  0  0  0  0
    1.9294    6.0661    9.5510 C   0  0  0  0  0  0  0  0  0  0  0  0
    2.8783    6.9980   10.1686 C   0  0  0  0  0  0  0  0  0  0  0  0
    4.1488    6.5825   10.5255 C   0  0  0  0  0  0  0  0  0  0  0  0
    5.0526    7.4122   11.0668 N   0  0  0  0  0  0  0  0  0  0  0  0
    4.7952    8.7091   11.3039 C   0  0  0  0  0  0  0  0  0  0  0  0
    3.5350    9.1463   10.9558 C   0  0  0  0  0  0  0  0  0  0  0  0
    2.5702    8.3387   10.3974 C   0  0  0  0  0  0  0  0  0  0  0  0
    2.1154    3.6654   10.3588 C   0  0  0  0  0  0  0  0  0  0  0  0
    1.2967    3.8838   11.2841 O   0  0  0  0  0  0  0  0  0  0  0  0
    2.7993    2.3713   10.2558 C   0  0  0  0  0  0  0  0  0  0  0  0
    1.9034    1.2371   10.1861 N   0  0  0  0  0  0  0  0  0  0  0  0
    1.1724    1.0130    8.9842 C   0  0  0  0  0  0  0  0  0  0  0  0
    0.0103    1.7312    8.8358 C   0  0  0  0  0  0  0  0  0  0  0  0
   -0.7264    1.5604    7.7275 N   0  0  0  0  0  0  0  0  0  0  0  0
   -0.3875    0.7177    6.7434 C   0  0  0  0  0  0  0  0  0  0  0  0
    0.7721   -0.0103    6.8717 C   0  0  0  0  0  0  0  0  0  0  0  0
    1.5680    0.1348    8.0055 C   0  0  0  0  0  0  0  0  0  0  0  0
   -1.2023    0.6069    5.6447 O   0  0  0  0  0  0  0  0  0  0  0  0
   -1.8773    1.6172    4.9775 C   0  0  0  0  0  0  0  0  0  0  0  0
    1.6613    0.1159   11.4565 S   0  0  0  0  0  6  0  0  0  0  0  0
    1.3397    0.9257   12.6944 O   0  0  0  0  0  0  0  0  0  0  0  0
    0.4279   -0.6854   11.1163 O   0  0  0  0  0  0  0  0  0  0  0  0
    2.9734   -0.9733   11.7284 C   0  0  0  0  0  0  0  0  0  0  0  0
    2.8895   -2.2528   11.1731 C   0  0  0  0  0  0  0  0  0  0  0  0
    3.8825   -3.1870   11.3408 C   0  0  0  0  0  0  0  0  0  0  0  0
    4.9859   -2.8297   12.0820 C   0  0  0  0  0  0  0  0  0  0  0  0
    5.0772   -1.5706   12.6330 C   0  0  0  0  0  0  0  0  0  0  0  0
    4.0802   -0.6144   12.4723 C   0  0  0  0  0  0  0  0  0  0  0  0
    4.1989    0.7272   13.0711 C   0  0  0  0  0  0  0  0  0  0  0  0
  1  2  1  0
  2  3  1  0
  3  4  1  0
  4  5  1  0
  5  6  2  0
  6  7  1  0
  7  8  2  0
  8  9  1  0
  9 10  2  0
  3 11  1  0
 11 12  2  0
 11 13  1  0
 13 14  1  0
 14 15  1  0
 15 16  2  0
 16 17  1  0
 17 18  2  0
 18 19  1  0
 19 20  2  0
 18 21  1  0
 21 22  1  0
 14 23  1  0
 23 24  2  0
 23 25  2  0
 23 26  1  0
 26 27  2  0
 27 28  1  0
 28 29  2  0
 29 30  1  0
 30 31  2  0
 31 32  1  0
 10  5  1  0
 20 15  1  0
 31 26  1  0
M  END
$$$$
