
     RDKit          3D

 32 34  0  0  0  0  0  0  0  0999 V2000
    3.7287    1.2885    9.7457 C   0  0  0  0  0  0  0  0  0  0  0  0
    3.6543    1.8787   11.1295 C   0  0  0  0  0  0  0  0  0  0  0  0
    2.2624    2.0699   11.5335 N   0  0  0  0  0  0  0  0  0  0  0  0
    1.7708    1.2127   12.5723 C   0  0  0  0  0  0  0  0  0  0  0  0
    2.6964    0.1963   13.0828 C   0  0  0  0  0  0  0  0  0  0  0  0
    4.0625    0.4155   13.0769 C   0  0  0  0  0  0  0  0  0  0  0  0
    4.9376   -0.4784   13.5603 N   0  0  0  0  0  0  0  0  0  0  0  0
    4.5564   -1.6539   14.0869 C   0  0  0  0  0  0  0  0  0  0  0  0
    3.1991   -1.8943   14.1039 C   0  0  0  0  0  0  0  0  0  0  0  0
    2.2581   -1.0127   13.6222 C   0  0  0  0  0  0  0  0  0  0  0  0
    1.5423    3.1064   10.8955 C   0  0  0  0  0  0  0  0  0  0  0  0
    0.4059    3.3938   11.3429 O   0  0  0  0  0  0  0  0  0  0  0  0
    2.0978    3.8297    9.7460 C   0  0  0  0  0  0  0  0  0  0  0  0
    1.6415    3.3358    8.4646 N   0  0  0  0  0  0  0  0  0  0  0  0
    0.7149    2.2542    8.4366 C   0  0  0  0  0  0  0  0  0  0  0  0
    1.2061    1.0429    8.0127 C   0  0  0  0  0  0  0  0  0  0  0  0
    0.3812   -0.0139    7.9587 N   0  0  0  0  0  0  0  0  0  0  0  0
   -0.9123    0.0463    8.3002 C   0  0  0  0  0  0  0  0  0  0  0  0
   -1.4239    1.2491    8.7277 C   0  0  0  0  0  0  0  0  0  0  0  0
   -0.6041    2.3728    8.7994 C   0  0  0  0  0  0  0  0  0  0  0  0
   -1.6826   -1.0862    8.2133 O   0  0  0  0  0  0  0  0  0  0  0  0
   -1.2602   -2.3934    8.0281 C   0  0  0  0  0  0  0  0  0  0  0  0
    2.1289    3.9733    6.9527 S   0  0  0  0  0  6  0  0  0  0  0  0
    3.5052    4.5696    7.1568 O   0  0  0  0  0  0  0  0  0  0  0  0
    2.2850    2.8079    6.0058 O   0  0  0  0  0  0  0  0  0  0  0  0
    1.0356    5.1131    6.2548 C   0  0  0  0  0  0  0  0  0  0  0  0
    0.1971    4.6732    5.2272 C   0  0  0  0  0  0  0  0  0  0  0  0
   -0.7006    5.5099    4.6100 C   0  0  0  0  0  0  0  0  0  0  0  0
   -0.7594    6.8183    5.0335 C   0  0  0  0  0  0  0  0  0  0  0  0
    0.0632    7.2607    6.0458 C   0  0  0  0  0  0  0  0  0  0  0  0
    0.9770    6.4258    6.6799 C   0  0  0  0  0  0  0  0  0  0  0  0
    1.8477    6.9207    7.7613 C   0  0  0  0  0  0  0  0  0  0  0  0
  1  2  1  0
  2  3  1  0
  3  4  1  0
  4  5  1  0
  5  6  2  0
  6  7  1  0
  7  8  2  0
  8  9  1  0
  9 10  2  0
  3 11  1  0
 11 12  2  0
 11 13  1  0
 13 14  1  0
 14 15  1  0
 15 16  2  0
 16 17  1  0
 17 18  2  0
 18 19  1  0
 19 20  2  0
 18 21  1  0
 21 22  1  0
 14 23  1  0
 23 24  2  0
 23 25  2  0
 23 26  1  0
 26 27  2  0
 27 28  1  0
 28 29  2  0
 29 30  1  0
 30 31  2  0
 31 32  1  0
 10  5  1  0
 20 15  1  0
 31 26  1  0
M  END
$$$$
