
     RDKit          3D

 32 34  0  0  0  0  0  0  0  0999 V2000
    4.3280    4.7793    8.3931 C   0  0  0  0  0  0  0  0  0  0  0  0
    3.1412    3.8623    8.2535 C   0  0  0  0  0  0  0  0  0  0  0  0
    1.9083    4.5561    8.6221 N   0  0  0  0  0  0  0  0  0  0  0  0
    1.6236    5.7758    7.9241 C   0  0  0  0  0  0  0  0  0  0  0  0
    0.7749    5.6720    6.7328 C   0  0  0  0  0  0  0  0  0  0  0  0
    0.4616    6.7939    5.9862 C   0  0  0  0  0  0  0  0  0  0  0  0
   -0.2883    6.7343    4.8761 N   0  0  0  0  0  0  0  0  0  0  0  0
   -0.7926    5.5824    4.4034 C   0  0  0  0  0  0  0  0  0  0  0  0
   -0.4932    4.4504    5.1309 C   0  0  0  0  0  0  0  0  0  0  0  0
    0.2713    4.4545    6.2756 C   0  0  0  0  0  0  0  0  0  0  0  0
    1.0906    3.9429    9.5994 C   0  0  0  0  0  0  0  0  0  0  0  0
    0.0994    4.5849   10.0229 O   0  0  0  0  0  0  0  0  0  0  0  0
    1.3831    2.5981   10.1084 C   0  0  0  0  0  0  0  0  0  0  0  0
    2.0175    2.5871   11.4089 N   0  0  0  0  0  0  0  0  0  0  0  0
    1.3484    3.2056   12.5039 C   0  0  0  0  0  0  0  0  0  0  0  0
    1.5078    4.5650   12.6251 C   0  0  0  0  0  0  0  0  0  0  0  0
    0.9071    5.2055   13.6396 N   0  0  0  0  0  0  0  0  0  0  0  0
    0.1495    4.5854   14.5534 C   0  0  0  0  0  0  0  0  0  0  0  0
   -0.0233    3.2250   14.4501 C   0  0  0  0  0  0  0  0  0  0  0  0
    0.5817    2.5191   13.4130 C   0  0  0  0  0  0  0  0  0  0  0  0
   -0.4267    5.3213   15.5583 O   0  0  0  0  0  0  0  0  0  0  0  0
   -0.4152    6.6977   15.7223 C   0  0  0  0  0  0  0  0  0  0  0  0
    3.5320    1.8620   11.7405 S   0  0  0  0  0  6  0  0  0  0  0  0
    4.5593    2.6059   10.9142 O   0  0  0  0  0  0  0  0  0  0  0  0
    3.8484    2.1319   13.1917 O   0  0  0  0  0  0  0  0  0  0  0  0
    3.6017    0.1588   11.4644 C   0  0  0  0  0  0  0  0  0  0  0  0
    4.2055   -0.2907   10.2872 C   0  0  0  0  0  0  0  0  0  0  0  0
    4.3022   -1.6263    9.9813 C   0  0  0  0  0  0  0  0  0  0  0  0
    3.7817   -2.5326   10.8771 C   0  0  0  0  0  0  0  0  0  0  0  0
    3.1848   -2.0986   12.0401 C   0  0  0  0  0  0  0  0  0  0  0  0
    3.0792   -0.7501   12.3633 C   0  0  0  0  0  0  0  0  0  0  0  0
    2.4362   -0.3082   13.6139 C   0  0  0  0  0  0  0  0  0  0  0  0
  1  2  1  0
  2  3  1  0
  3  4  1  0
  4  5  1  0
  5  6  2  0
  6  7  1  0
  7  8  2  0
  8  9  1  0
  9 10  2  0
  3 11  1  0
 11 12  2  0
 11 13  1  0
 13 14  1  0
 14 15  1  0
 15 16  2  0
 16 17  1  0
 17 18  2  0
 18 19  1  0
 19 20  2  0
 18 21  1  0
 21 22  1  0
 14 23  1  0
 23 24  2  0
 23 25  2  0
 23 26  1  0
 26 27  2  0
 27 28  1  0
 28 29  2  0
 29 30  1  0
 30 31  2  0
 31 32  1  0
 10  5  1  0
 20 15  1  0
 31 26  1  0
M  END
$$$$
