
     RDKit          3D

 32 34  0  0  0  0  0  0  0  0999 V2000
    4.6681    1.0274   12.0311 C   0  0  0  0  0  0  0  0  0  0  0  0
    3.4583    1.6939   12.6320 C   0  0  0  0  0  0  0  0  0  0  0  0
    2.2348    1.0085   12.2193 N   0  0  0  0  0  0  0  0  0  0  0  0
    1.9406   -0.2325   12.8747 C   0  0  0  0  0  0  0  0  0  0  0  0
    0.9943   -0.1800   13.9936 C   0  0  0  0  0  0  0  0  0  0  0  0
    0.4182    1.0176   14.3786 C   0  0  0  0  0  0  0  0  0  0  0  0
   -0.4716    1.1004   15.3784 N   0  0  0  0  0  0  0  0  0  0  0  0
   -0.8722    0.0288   16.0825 C   0  0  0  0  0  0  0  0  0  0  0  0
   -0.3116   -1.1762   15.7165 C   0  0  0  0  0  0  0  0  0  0  0  0
    0.6046   -1.3181   14.6990 C   0  0  0  0  0  0  0  0  0  0  0  0
    1.4338    1.6489   11.2456 C   0  0  0  0  0  0  0  0  0  0  0  0
    0.2884    1.1848   11.0293 O   0  0  0  0  0  0  0  0  0  0  0  0
    1.9173    2.8206   10.5063 C   0  0  0  0  0  0  0  0  0  0  0  0
    1.7432    2.7240    9.0730 N   0  0  0  0  0  0  0  0  0  0  0  0
    1.0560    1.5958    8.5399 C   0  0  0  0  0  0  0  0  0  0  0  0
    1.8108    0.4670    8.3295 C   0  0  0  0  0  0  0  0  0  0  0  0
    1.2224   -0.6276    7.8237 N   0  0  0  0  0  0  0  0  0  0  0  0
   -0.0779   -0.6827    7.5083 C   0  0  0  0  0  0  0  0  0  0  0  0
   -0.8515    0.4360    7.7115 C   0  0  0  0  0  0  0  0  0  0  0  0
   -0.2828    1.5949    8.2345 C   0  0  0  0  0  0  0  0  0  0  0  0
   -0.5951   -1.8457    6.9951 O   0  0  0  0  0  0  0  0  0  0  0  0
   -0.2840   -3.1485    7.3520 C   0  0  0  0  0  0  0  0  0  0  0  0
    2.2983    3.8905    7.9502 S   0  0  0  0  0  6  0  0  0  0  0  0
    3.0198    4.9538    8.7503 O   0  0  0  0  0  0  0  0  0  0  0  0
    3.3284    3.2154    7.0770 O   0  0  0  0  0  0  0  0  0  0  0  0
    1.0744    4.5712    6.9400 C   0  0  0  0  0  0  0  0  0  0  0  0
    0.9543    4.0838    5.6359 C   0  0  0  0  0  0  0  0  0  0  0  0
    0.0135    4.5683    4.7602 C   0  0  0  0  0  0  0  0  0  0  0  0
   -0.8271    5.5644    5.2026 C   0  0  0  0  0  0  0  0  0  0  0  0
   -0.7161    6.0509    6.4864 C   0  0  0  0  0  0  0  0  0  0  0  0
    0.2314    5.5707    7.3842 C   0  0  0  0  0  0  0  0  0  0  0  0
    0.3323    6.1061    8.7537 C   0  0  0  0  0  0  0  0  0  0  0  0
  1  2  1  0
  2  3  1  0
  3  4  1  0
  4  5  1  0
  5  6  2  0
  6  7  1  0
  7  8  2  0
  8  9  1  0
  9 10  2  0
  3 11  1  0
 11 12  2  0
 11 13  1  0
 13 14  1  0
 14 15  1  0
 15 16  2  0
 16 17  1  0
 17 18  2  0
 18 19  1  0
 19 20  2  0
 18 21  1  0
 21 22  1  0
 14 23  1  0
 23 24  2  0
 23 25  2  0
 23 26  1  0
 26 27  2  0
 27 28  1  0
 28 29  2  0
 29 30  1  0
 30 31  2  0
 31 32  1  0
 10  5  1  0
 20 15  1  0
 31 26  1  0
M  END
$$$$
