
     RDKit          3D

 32 34  0  0  0  0  0  0  0  0999 V2000
   -0.4710   -0.1253    8.1255 C   0  0  0  0  0  0  0  0  0  0  0  0
   -0.4841    1.3796    8.1857 C   0  0  0  0  0  0  0  0  0  0  0  0
    0.7858    1.9250    7.7092 N   0  0  0  0  0  0  0  0  0  0  0  0
    0.9861    1.9417    6.2895 C   0  0  0  0  0  0  0  0  0  0  0  0
    0.5927    3.1642    5.5817 C   0  0  0  0  0  0  0  0  0  0  0  0
    0.1117    4.2606    6.2750 C   0  0  0  0  0  0  0  0  0  0  0  0
   -0.2317    5.4046    5.6654 N   0  0  0  0  0  0  0  0  0  0  0  0
   -0.1354    5.5747    4.3364 C   0  0  0  0  0  0  0  0  0  0  0  0
    0.3422    4.4953    3.6242 C   0  0  0  0  0  0  0  0  0  0  0  0
    0.7093    3.2994    4.1986 C   0  0  0  0  0  0  0  0  0  0  0  0
    1.6803    2.4232    8.6847 C   0  0  0  0  0  0  0  0  0  0  0  0
    2.6959    3.0440    8.2879 O   0  0  0  0  0  0  0  0  0  0  0  0
    1.4373    2.2262   10.1183 C   0  0  0  0  0  0  0  0  0  0  0  0
    2.6431    2.0656   10.9020 N   0  0  0  0  0  0  0  0  0  0  0  0
    3.2553    0.7807   10.9637 C   0  0  0  0  0  0  0  0  0  0  0  0
    2.5734   -0.1852   11.6639 C   0  0  0  0  0  0  0  0  0  0  0  0
    3.1008   -1.4150   11.7632 N   0  0  0  0  0  0  0  0  0  0  0  0
    4.2708   -1.7589   11.2098 C   0  0  0  0  0  0  0  0  0  0  0  0
    4.9690   -0.8072   10.5042 C   0  0  0  0  0  0  0  0  0  0  0  0
    4.4597    0.4827   10.3753 C   0  0  0  0  0  0  0  0  0  0  0  0
    4.7342   -3.0416   11.3630 O   0  0  0  0  0  0  0  0  0  0  0  0
    4.1721   -4.0691   12.1044 C   0  0  0  0  0  0  0  0  0  0  0  0
    3.4114    3.3283   11.7651 S   0  0  0  0  0  6  0  0  0  0  0  0
    2.5443    3.6195   12.9712 O   0  0  0  0  0  0  0  0  0  0  0  0
    4.7220    2.7842   12.2804 O   0  0  0  0  0  0  0  0  0  0  0  0
    3.7261    4.7550   10.8446 C   0  0  0  0  0  0  0  0  0  0  0  0
    4.7220    4.6979    9.8661 C   0  0  0  0  0  0  0  0  0  0  0  0
    5.0442    5.7840    9.0893 C   0  0  0  0  0  0  0  0  0  0  0  0
    4.3510    6.9547    9.2980 C   0  0  0  0  0  0  0  0  0  0  0  0
    3.3676    7.0202   10.2603 C   0  0  0  0  0  0  0  0  0  0  0  0
    3.0306    5.9294   11.0545 C   0  0  0  0  0  0  0  0  0  0  0  0
    1.9744    6.0221   12.0785 C   0  0  0  0  0  0  0  0  0  0  0  0
  1  2  1  0
  2  3  1  0
  3  4  1  0
  4  5  1  0
  5  6  2  0
  6  7  1  0
  7  8  2  0
  8  9  1  0
  9 10  2  0
  3 11  1  0
 11 12  2  0
 11 13  1  0
 13 14  1  0
 14 15  1  0
 15 16  2  0
 16 17  1  0
 17 18  2  0
 18 19  1  0
 19 20  2  0
 18 21  1  0
 21 22  1  0
 14 23  1  0
 23 24  2  0
 23 25  2  0
 23 26  1  0
 26 27  2  0
 27 28  1  0
 28 29  2  0
 29 30  1  0
 30 31  2  0
 31 32  1  0
 10  5  1  0
 20 15  1  0
 31 26  1  0
M  END
$$$$
