
     RDKit          3D

 32 34  0  0  0  0  0  0  0  0999 V2000
    2.1044    5.2344    6.0055 C   0  0  0  0  0  0  0  0  0  0  0  0
    3.0369    5.0778    7.1780 C   0  0  0  0  0  0  0  0  0  0  0  0
    2.3291    5.3181    8.4344 N   0  0  0  0  0  0  0  0  0  0  0  0
    2.0132    6.6821    8.7437 C   0  0  0  0  0  0  0  0  0  0  0  0
    2.8878    7.3604    9.7056 C   0  0  0  0  0  0  0  0  0  0  0  0
    4.0100    6.7282   10.2110 C   0  0  0  0  0  0  0  0  0  0  0  0
    4.8479    7.3261   11.0705 N   0  0  0  0  0  0  0  0  0  0  0  0
    4.6633    8.5831   11.5067 C   0  0  0  0  0  0  0  0  0  0  0  0
    3.5512    9.2335   11.0161 C   0  0  0  0  0  0  0  0  0  0  0  0
    2.6597    8.6682   10.1327 C   0  0  0  0  0  0  0  0  0  0  0  0
    1.9844    4.1851    9.2074 C   0  0  0  0  0  0  0  0  0  0  0  0
    1.2889    4.3653   10.2360 O   0  0  0  0  0  0  0  0  0  0  0  0
    2.4207    2.8368    8.8268 C   0  0  0  0  0  0  0  0  0  0  0  0
    1.9026    1.7889    9.6797 N   0  0  0  0  0  0  0  0  0  0  0  0
    2.8000    1.1068   10.5507 C   0  0  0  0  0  0  0  0  0  0  0  0
    3.2716   -0.1063   10.1100 C   0  0  0  0  0  0  0  0  0  0  0  0
    4.1162   -0.8007   10.8877 N   0  0  0  0  0  0  0  0  0  0  0  0
    4.5317   -0.3714   12.0862 C   0  0  0  0  0  0  0  0  0  0  0  0
    4.0720    0.8405   12.5459 C   0  0  0  0  0  0  0  0  0  0  0  0
    3.1937    1.5953   11.7721 C   0  0  0  0  0  0  0  0  0  0  0  0
    5.3972   -1.1487   12.8143 O   0  0  0  0  0  0  0  0  0  0  0  0
    5.9197   -2.3879   12.4785 C   0  0  0  0  0  0  0  0  0  0  0  0
    0.2610    1.3075    9.7324 S   0  0  0  0  0  6  0  0  0  0  0  0
   -0.1482    1.3199   11.1898 O   0  0  0  0  0  0  0  0  0  0  0  0
   -0.5417    2.3798    9.0359 O   0  0  0  0  0  0  0  0  0  0  0  0
   -0.0780   -0.2125    8.9864 C   0  0  0  0  0  0  0  0  0  0  0  0
   -0.3147   -0.2290    7.6093 C   0  0  0  0  0  0  0  0  0  0  0  0
   -0.5968   -1.3901    6.9318 C   0  0  0  0  0  0  0  0  0  0  0  0
   -0.6420   -2.5624    7.6517 C   0  0  0  0  0  0  0  0  0  0  0  0
   -0.4099   -2.5557    9.0094 C   0  0  0  0  0  0  0  0  0  0  0  0
   -0.1235   -1.3884    9.7091 C   0  0  0  0  0  0  0  0  0  0  0  0
    0.1216   -1.4046   11.1625 C   0  0  0  0  0  0  0  0  0  0  0  0
  1  2  1  0
  2  3  1  0
  3  4  1  0
  4  5  1  0
  5  6  2  0
  6  7  1  0
  7  8  2  0
  8  9  1  0
  9 10  2  0
  3 11  1  0
 11 12  2  0
 11 13  1  0
 13 14  1  0
 14 15  1  0
 15 16  2  0
 16 17  1  0
 17 18  2  0
 18 19  1  0
 19 20  2  0
 18 21  1  0
 21 22  1  0
 14 23  1  0
 23 24  2  0
 23 25  2  0
 23 26  1  0
 26 27  2  0
 27 28  1  0
 28 29  2  0
 29 30  1  0
 30 31  2  0
 31 32  1  0
 10  5  1  0
 20 15  1  0
 31 26  1  0
M  END
$$$$
