
     RDKit          3D

 32 34  0  0  0  0  0  0  0  0999 V2000
    3.3634    5.8828   10.9010 C   0  0  0  0  0  0  0  0  0  0  0  0
    2.3290    4.9241   11.4300 C   0  0  0  0  0  0  0  0  0  0  0  0
    2.8338    3.5526   11.3973 N   0  0  0  0  0  0  0  0  0  0  0  0
    3.9182    3.2453   12.2836 C   0  0  0  0  0  0  0  0  0  0  0  0
    3.8380    1.9732   13.0086 C   0  0  0  0  0  0  0  0  0  0  0  0
    2.7674    1.1171   12.8209 C   0  0  0  0  0  0  0  0  0  0  0  0
    2.6731   -0.0662   13.4449 N   0  0  0  0  0  0  0  0  0  0  0  0
    3.6095   -0.5116   14.2989 C   0  0  0  0  0  0  0  0  0  0  0  0
    4.6865    0.3247   14.5014 C   0  0  0  0  0  0  0  0  0  0  0  0
    4.8337    1.5479   13.8875 C   0  0  0  0  0  0  0  0  0  0  0  0
    2.1825    2.6461   10.5289 C   0  0  0  0  0  0  0  0  0  0  0  0
    2.5536    1.4477   10.5449 O   0  0  0  0  0  0  0  0  0  0  0  0
    1.1048    3.0830    9.6340 C   0  0  0  0  0  0  0  0  0  0  0  0
    1.1490    2.4761    8.3211 N   0  0  0  0  0  0  0  0  0  0  0  0
    0.4936    1.2274    8.1201 C   0  0  0  0  0  0  0  0  0  0  0  0
    1.2488    0.1011    8.3417 C   0  0  0  0  0  0  0  0  0  0  0  0
    0.6901   -1.1058    8.1638 N   0  0  0  0  0  0  0  0  0  0  0  0
   -0.5807   -1.2766    7.7775 C   0  0  0  0  0  0  0  0  0  0  0  0
   -1.3542   -0.1623    7.5508 C   0  0  0  0  0  0  0  0  0  0  0  0
   -0.8157    1.1106    7.7228 C   0  0  0  0  0  0  0  0  0  0  0  0
   -1.0688   -2.5496    7.6202 O   0  0  0  0  0  0  0  0  0  0  0  0
   -0.3791   -3.7472    7.7270 C   0  0  0  0  0  0  0  0  0  0  0  0
    1.9315    3.1640    6.9631 S   0  0  0  0  0  6  0  0  0  0  0  0
    3.2749    3.6679    7.4457 O   0  0  0  0  0  0  0  0  0  0  0  0
    2.2009    2.0437    5.9877 O   0  0  0  0  0  0  0  0  0  0  0  0
    1.0377    4.4009    6.1550 C   0  0  0  0  0  0  0  0  0  0  0  0
    1.4688    5.7222    6.2991 C   0  0  0  0  0  0  0  0  0  0  0  0
    0.8177    6.7714    5.6973 C   0  0  0  0  0  0  0  0  0  0  0  0
   -0.2914    6.4890    4.9325 C   0  0  0  0  0  0  0  0  0  0  0  0
   -0.7235    5.1895    4.7848 C   0  0  0  0  0  0  0  0  0  0  0  0
   -0.0751    4.1172    5.3880 C   0  0  0  0  0  0  0  0  0  0  0  0
   -0.5552    2.7342    5.2162 C   0  0  0  0  0  0  0  0  0  0  0  0
  1  2  1  0
  2  3  1  0
  3  4  1  0
  4  5  1  0
  5  6  2  0
  6  7  1  0
  7  8  2  0
  8  9  1  0
  9 10  2  0
  3 11  1  0
 11 12  2  0
 11 13  1  0
 13 14  1  0
 14 15  1  0
 15 16  2  0
 16 17  1  0
 17 18  2  0
 18 19  1  0
 19 20  2  0
 18 21  1  0
 21 22  1  0
 14 23  1  0
 23 24  2  0
 23 25  2  0
 23 26  1  0
 26 27  2  0
 27 28  1  0
 28 29  2  0
 29 30  1  0
 30 31  2  0
 31 32  1  0
 10  5  1  0
 20 15  1  0
 31 26  1  0
M  END
$$$$
