
     RDKit          3D

 32 34  0  0  0  0  0  0  0  0999 V2000
   -1.2614    4.3463   10.9800 C   0  0  0  0  0  0  0  0  0  0  0  0
   -0.4778    3.7492    9.8407 C   0  0  0  0  0  0  0  0  0  0  0  0
    0.6706    4.5907    9.5089 N   0  0  0  0  0  0  0  0  0  0  0  0
    0.4251    5.6957    8.6288 C   0  0  0  0  0  0  0  0  0  0  0  0
    0.5603    5.4378    7.1917 C   0  0  0  0  0  0  0  0  0  0  0  0
    0.7437    4.1512    6.7170 C   0  0  0  0  0  0  0  0  0  0  0  0
    0.8438    3.8733    5.4089 N   0  0  0  0  0  0  0  0  0  0  0  0
    0.7737    4.8209    4.4594 C   0  0  0  0  0  0  0  0  0  0  0  0
    0.5907    6.1113    4.9088 C   0  0  0  0  0  0  0  0  0  0  0  0
    0.4811    6.4521    6.2379 C   0  0  0  0  0  0  0  0  0  0  0  0
    1.9056    4.2653   10.1162 C   0  0  0  0  0  0  0  0  0  0  0  0
    2.9092    4.9543    9.8126 O   0  0  0  0  0  0  0  0  0  0  0  0
    2.0203    3.1589   11.0732 C   0  0  0  0  0  0  0  0  0  0  0  0
    2.6559    1.9770   10.5316 N   0  0  0  0  0  0  0  0  0  0  0  0
    1.9355    1.1769    9.5989 C   0  0  0  0  0  0  0  0  0  0  0  0
    0.9934    0.3269   10.1264 C   0  0  0  0  0  0  0  0  0  0  0  0
    0.2851   -0.4575    9.2997 N   0  0  0  0  0  0  0  0  0  0  0  0
    0.4468   -0.4580    7.9703 C   0  0  0  0  0  0  0  0  0  0  0  0
    1.3841    0.3857    7.4218 C   0  0  0  0  0  0  0  0  0  0  0  0
    2.1425    1.2176    8.2420 C   0  0  0  0  0  0  0  0  0  0  0  0
   -0.3224   -1.2949    7.2012 O   0  0  0  0  0  0  0  0  0  0  0  0
   -1.0764   -2.3818    7.6154 C   0  0  0  0  0  0  0  0  0  0  0  0
    4.2418    1.4659   10.9233 S   0  0  0  0  0  6  0  0  0  0  0  0
    4.9506    1.2070    9.6110 O   0  0  0  0  0  0  0  0  0  0  0  0
    4.9374    2.6326   11.5820 O   0  0  0  0  0  0  0  0  0  0  0  0
    4.3290    0.1006   11.9770 C   0  0  0  0  0  0  0  0  0  0  0  0
    4.4396    0.3375   13.3497 C   0  0  0  0  0  0  0  0  0  0  0  0
    4.5196   -0.6860   14.2622 C   0  0  0  0  0  0  0  0  0  0  0  0
    4.4874   -1.9776   13.7873 C   0  0  0  0  0  0  0  0  0  0  0  0
    4.3785   -2.2206   12.4359 C   0  0  0  0  0  0  0  0  0  0  0  0
    4.2969   -1.1950   11.5001 C   0  0  0  0  0  0  0  0  0  0  0  0
    4.1808   -1.4783   10.0583 C   0  0  0  0  0  0  0  0  0  0  0  0
  1  2  1  0
  2  3  1  0
  3  4  1  0
  4  5  1  0
  5  6  2  0
  6  7  1  0
  7  8  2  0
  8  9  1  0
  9 10  2  0
  3 11  1  0
 11 12  2  0
 11 13  1  0
 13 14  1  0
 14 15  1  0
 15 16  2  0
 16 17  1  0
 17 18  2  0
 18 19  1  0
 19 20  2  0
 18 21  1  0
 21 22  1  0
 14 23  1  0
 23 24  2  0
 23 25  2  0
 23 26  1  0
 26 27  2  0
 27 28  1  0
 28 29  2  0
 29 30  1  0
 30 31  2  0
 31 32  1  0
 10  5  1  0
 20 15  1  0
 31 26  1  0
M  END
$$$$
