
     RDKit          3D

 32 34  0  0  0  0  0  0  0  0999 V2000
    4.2273    5.5679   10.3541 C   0  0  0  0  0  0  0  0  0  0  0  0
    2.7390    5.3364   10.3549 C   0  0  0  0  0  0  0  0  0  0  0  0
    2.2927    4.8514    9.0501 N   0  0  0  0  0  0  0  0  0  0  0  0
    2.5708    5.6918    7.9222 C   0  0  0  0  0  0  0  0  0  0  0  0
    1.5021    5.8388    6.9290 C   0  0  0  0  0  0  0  0  0  0  0  0
    1.5213    5.1081    5.7543 C   0  0  0  0  0  0  0  0  0  0  0  0
    0.5482    5.1952    4.8356 N   0  0  0  0  0  0  0  0  0  0  0  0
   -0.5190    5.9973    4.9844 C   0  0  0  0  0  0  0  0  0  0  0  0
   -0.5601    6.7354    6.1480 C   0  0  0  0  0  0  0  0  0  0  0  0
    0.4100    6.6840    7.1233 C   0  0  0  0  0  0  0  0  0  0  0  0
    1.6671    3.5836    9.0127 C   0  0  0  0  0  0  0  0  0  0  0  0
    1.2066    3.1879    7.9147 O   0  0  0  0  0  0  0  0  0  0  0  0
    1.5555    2.7490   10.2144 C   0  0  0  0  0  0  0  0  0  0  0  0
    2.1435    1.4343   10.0734 N   0  0  0  0  0  0  0  0  0  0  0  0
    1.4991    0.4809    9.2338 C   0  0  0  0  0  0  0  0  0  0  0  0
    0.1265    0.4495    9.2905 C   0  0  0  0  0  0  0  0  0  0  0  0
   -0.5391   -0.4309    8.5274 N   0  0  0  0  0  0  0  0  0  0  0  0
    0.0680   -1.2925    7.7013 C   0  0  0  0  0  0  0  0  0  0  0  0
    1.4412   -1.2772    7.6290 C   0  0  0  0  0  0  0  0  0  0  0  0
    2.1731   -0.3802    8.4034 C   0  0  0  0  0  0  0  0  0  0  0  0
   -0.6936   -2.1587    6.9575 O   0  0  0  0  0  0  0  0  0  0  0  0
   -2.0649   -2.1327    6.7569 C   0  0  0  0  0  0  0  0  0  0  0  0
    3.5884    0.9333   10.8420 S   0  0  0  0  0  6  0  0  0  0  0  0
    4.2359   -0.0845    9.9274 O   0  0  0  0  0  0  0  0  0  0  0  0
    4.5055    2.1314   10.8942 O   0  0  0  0  0  0  0  0  0  0  0  0
    3.3877    0.3176   12.4428 C   0  0  0  0  0  0  0  0  0  0  0  0
    4.1459    0.8922   13.4664 C   0  0  0  0  0  0  0  0  0  0  0  0
    4.0560    0.4645   14.7686 C   0  0  0  0  0  0  0  0  0  0  0  0
    3.1850   -0.5632   15.0513 C   0  0  0  0  0  0  0  0  0  0  0  0
    2.4336   -1.1356   14.0487 C   0  0  0  0  0  0  0  0  0  0  0  0
    2.5139   -0.7136   12.7260 C   0  0  0  0  0  0  0  0  0  0  0  0
    1.7002   -1.3407   11.6690 C   0  0  0  0  0  0  0  0  0  0  0  0
  1  2  1  0
  2  3  1  0
  3  4  1  0
  4  5  1  0
  5  6  2  0
  6  7  1  0
  7  8  2  0
  8  9  1  0
  9 10  2  0
  3 11  1  0
 11 12  2  0
 11 13  1  0
 13 14  1  0
 14 15  1  0
 15 16  2  0
 16 17  1  0
 17 18  2  0
 18 19  1  0
 19 20  2  0
 18 21  1  0
 21 22  1  0
 14 23  1  0
 23 24  2  0
 23 25  2  0
 23 26  1  0
 26 27  2  0
 27 28  1  0
 28 29  2  0
 29 30  1  0
 30 31  2  0
 31 32  1  0
 10  5  1  0
 20 15  1  0
 31 26  1  0
M  END
$$$$
