
     RDKit          3D

 32 34  0  0  0  0  0  0  0  0999 V2000
    2.1458    6.4043   10.5058 C   0  0  0  0  0  0  0  0  0  0  0  0
    2.6088    5.7169    9.2481 C   0  0  0  0  0  0  0  0  0  0  0  0
    1.5356    4.9015    8.6821 N   0  0  0  0  0  0  0  0  0  0  0  0
    0.5025    5.5998    7.9743 C   0  0  0  0  0  0  0  0  0  0  0  0
    0.5267    5.5079    6.5110 C   0  0  0  0  0  0  0  0  0  0  0  0
    1.4578    4.7130    5.8665 C   0  0  0  0  0  0  0  0  0  0  0  0
    1.4933    4.5824    4.5323 N   0  0  0  0  0  0  0  0  0  0  0  0
    0.6288    5.2119    3.7194 C   0  0  0  0  0  0  0  0  0  0  0  0
   -0.3090    6.0097    4.3394 C   0  0  0  0  0  0  0  0  0  0  0  0
   -0.3907    6.1789    5.7030 C   0  0  0  0  0  0  0  0  0  0  0  0
    1.6347    3.5004    8.8469 C   0  0  0  0  0  0  0  0  0  0  0  0
    0.9117    2.7715    8.1256 O   0  0  0  0  0  0  0  0  0  0  0  0
    2.5516    2.9076    9.8272 C   0  0  0  0  0  0  0  0  0  0  0  0
    2.0197    1.7416   10.4991 N   0  0  0  0  0  0  0  0  0  0  0  0
    1.3866    0.7304    9.7207 C   0  0  0  0  0  0  0  0  0  0  0  0
    0.0272    0.8490    9.5586 C   0  0  0  0  0  0  0  0  0  0  0  0
   -0.6283   -0.0755    8.8403 N   0  0  0  0  0  0  0  0  0  0  0  0
   -0.0233   -1.1219    8.2637 C   0  0  0  0  0  0  0  0  0  0  0  0
    1.3368   -1.2590    8.4131 C   0  0  0  0  0  0  0  0  0  0  0  0
    2.0580   -0.3231    9.1507 C   0  0  0  0  0  0  0  0  0  0  0  0
   -0.7741   -2.0194    7.5465 O   0  0  0  0  0  0  0  0  0  0  0  0
   -2.0342   -1.8333    6.9997 C   0  0  0  0  0  0  0  0  0  0  0  0
    2.1074    1.4737   12.1873 S   0  0  0  0  0  6  0  0  0  0  0  0
    2.4095    2.8134   12.8240 O   0  0  0  0  0  0  0  0  0  0  0  0
    0.7291    1.0635   12.6468 O   0  0  0  0  0  0  0  0  0  0  0  0
    3.2386    0.2641   12.6764 C   0  0  0  0  0  0  0  0  0  0  0  0
    4.5451    0.6665   12.9658 C   0  0  0  0  0  0  0  0  0  0  0  0
    5.5131   -0.2258   13.3575 C   0  0  0  0  0  0  0  0  0  0  0  0
    5.1628   -1.5529   13.4621 C   0  0  0  0  0  0  0  0  0  0  0  0
    3.8773   -1.9587   13.1789 C   0  0  0  0  0  0  0  0  0  0  0  0
    2.8868   -1.0672   12.7810 C   0  0  0  0  0  0  0  0  0  0  0  0
    1.5173   -1.5237   12.4830 C   0  0  0  0  0  0  0  0  0  0  0  0
  1  2  1  0
  2  3  1  0
  3  4  1  0
  4  5  1  0
  5  6  2  0
  6  7  1  0
  7  8  2  0
  8  9  1  0
  9 10  2  0
  3 11  1  0
 11 12  2  0
 11 13  1  0
 13 14  1  0
 14 15  1  0
 15 16  2  0
 16 17  1  0
 17 18  2  0
 18 19  1  0
 19 20  2  0
 18 21  1  0
 21 22  1  0
 14 23  1  0
 23 24  2  0
 23 25  2  0
 23 26  1  0
 26 27  2  0
 27 28  1  0
 28 29  2  0
 29 30  1  0
 30 31  2  0
 31 32  1  0
 10  5  1  0
 20 15  1  0
 31 26  1  0
M  END
$$$$
