
     RDKit          3D

 32 34  0  0  0  0  0  0  0  0999 V2000
    1.4242    2.2727    6.4975 C   0  0  0  0  0  0  0  0  0  0  0  0
    2.4588    3.0960    7.2189 C   0  0  0  0  0  0  0  0  0  0  0  0
    1.8190    4.1235    8.0387 N   0  0  0  0  0  0  0  0  0  0  0  0
    1.7892    5.4512    7.4981 C   0  0  0  0  0  0  0  0  0  0  0  0
    0.7925    5.7174    6.4560 C   0  0  0  0  0  0  0  0  0  0  0  0
   -0.2501    4.8361    6.2313 C   0  0  0  0  0  0  0  0  0  0  0  0
   -1.1954    5.0592    5.3066 N   0  0  0  0  0  0  0  0  0  0  0  0
   -1.2036    6.1540    4.5283 C   0  0  0  0  0  0  0  0  0  0  0  0
   -0.1741    7.0472    4.7346 C   0  0  0  0  0  0  0  0  0  0  0  0
    0.8207    6.8683    5.6690 C   0  0  0  0  0  0  0  0  0  0  0  0
    1.2528    3.7089    9.2665 C   0  0  0  0  0  0  0  0  0  0  0  0
    0.6173    4.5581    9.9368 O   0  0  0  0  0  0  0  0  0  0  0  0
    1.3974    2.3311    9.7500 C   0  0  0  0  0  0  0  0  0  0  0  0
    2.3031    2.1935   10.8702 N   0  0  0  0  0  0  0  0  0  0  0  0
    2.0749    2.9776   12.0373 C   0  0  0  0  0  0  0  0  0  0  0  0
    1.0571    2.5608   12.8611 C   0  0  0  0  0  0  0  0  0  0  0  0
    0.7888    3.2608   13.9739 N   0  0  0  0  0  0  0  0  0  0  0  0
    1.4675    4.3583   14.3322 C   0  0  0  0  0  0  0  0  0  0  0  0
    2.4904    4.7923   13.5220 C   0  0  0  0  0  0  0  0  0  0  0  0
    2.8039    4.0967   12.3567 C   0  0  0  0  0  0  0  0  0  0  0  0
    1.1234    5.0121   15.4888 O   0  0  0  0  0  0  0  0  0  0  0  0
    0.4425    4.5059   16.5849 C   0  0  0  0  0  0  0  0  0  0  0  0
    3.6442    1.1306   10.9050 S   0  0  0  0  0  6  0  0  0  0  0  0
    3.8087    0.5935    9.4993 O   0  0  0  0  0  0  0  0  0  0  0  0
    4.8664    1.9631   11.2090 O   0  0  0  0  0  0  0  0  0  0  0  0
    3.5364   -0.1422   12.0670 C   0  0  0  0  0  0  0  0  0  0  0  0
    4.3230   -0.0478   13.2181 C   0  0  0  0  0  0  0  0  0  0  0  0
    4.3064   -1.0144   14.1939 C   0  0  0  0  0  0  0  0  0  0  0  0
    3.4812   -2.1009   14.0117 C   0  0  0  0  0  0  0  0  0  0  0  0
    2.7023   -2.2024   12.8802 C   0  0  0  0  0  0  0  0  0  0  0  0
    2.7086   -1.2323   11.8837 C   0  0  0  0  0  0  0  0  0  0  0  0
    1.8666   -1.3614   10.6808 C   0  0  0  0  0  0  0  0  0  0  0  0
  1  2  1  0
  2  3  1  0
  3  4  1  0
  4  5  1  0
  5  6  2  0
  6  7  1  0
  7  8  2  0
  8  9  1  0
  9 10  2  0
  3 11  1  0
 11 12  2  0
 11 13  1  0
 13 14  1  0
 14 15  1  0
 15 16  2  0
 16 17  1  0
 17 18  2  0
 18 19  1  0
 19 20  2  0
 18 21  1  0
 21 22  1  0
 14 23  1  0
 23 24  2  0
 23 25  2  0
 23 26  1  0
 26 27  2  0
 27 28  1  0
 28 29  2  0
 29 30  1  0
 30 31  2  0
 31 32  1  0
 10  5  1  0
 20 15  1  0
 31 26  1  0
M  END
$$$$
