
     RDKit          3D

 32 34  0  0  0  0  0  0  0  0999 V2000
   -0.6637    4.3980   13.0596 C   0  0  0  0  0  0  0  0  0  0  0  0
    0.6233    3.6251   12.9377 C   0  0  0  0  0  0  0  0  0  0  0  0
    1.7503    4.5320   12.7265 N   0  0  0  0  0  0  0  0  0  0  0  0
    2.5420    4.8528   13.8781 C   0  0  0  0  0  0  0  0  0  0  0  0
    2.0220    4.4183   15.1785 C   0  0  0  0  0  0  0  0  0  0  0  0
    0.8580    3.6754   15.2636 C   0  0  0  0  0  0  0  0  0  0  0  0
    0.3669    3.2370   16.4320 N   0  0  0  0  0  0  0  0  0  0  0  0
    0.9662    3.4845   17.6084 C   0  0  0  0  0  0  0  0  0  0  0  0
    2.1286    4.2232   17.5485 C   0  0  0  0  0  0  0  0  0  0  0  0
    2.6766    4.6970   16.3780 C   0  0  0  0  0  0  0  0  0  0  0  0
    1.9821    4.9756   11.4038 C   0  0  0  0  0  0  0  0  0  0  0  0
    3.0404    5.6091   11.1736 O   0  0  0  0  0  0  0  0  0  0  0  0
    1.0219    4.7081   10.3271 C   0  0  0  0  0  0  0  0  0  0  0  0
    1.5223    3.8191    9.3008 N   0  0  0  0  0  0  0  0  0  0  0  0
    1.2491    2.4251    9.4077 C   0  0  0  0  0  0  0  0  0  0  0  0
    2.1080    1.6951   10.1935 C   0  0  0  0  0  0  0  0  0  0  0  0
    1.9072    0.3754   10.3296 N   0  0  0  0  0  0  0  0  0  0  0  0
    0.9018   -0.2793    9.7347 C   0  0  0  0  0  0  0  0  0  0  0  0
    0.0303    0.4327    8.9443 C   0  0  0  0  0  0  0  0  0  0  0  0
    0.2006    1.8046    8.7743 C   0  0  0  0  0  0  0  0  0  0  0  0
    0.7731   -1.6316    9.9303 O   0  0  0  0  0  0  0  0  0  0  0  0
    1.3752   -2.4142   10.9031 C   0  0  0  0  0  0  0  0  0  0  0  0
    2.4224    4.3263    7.9362 S   0  0  0  0  0  6  0  0  0  0  0  0
    2.9947    5.6861    8.2750 O   0  0  0  0  0  0  0  0  0  0  0  0
    3.5873    3.3770    7.7912 O   0  0  0  0  0  0  0  0  0  0  0  0
    1.5418    4.3554    6.4511 C   0  0  0  0  0  0  0  0  0  0  0  0
    1.6746    3.2643    5.5883 C   0  0  0  0  0  0  0  0  0  0  0  0
    1.0165    3.2025    4.3842 C   0  0  0  0  0  0  0  0  0  0  0  0
    0.2056    4.2593    4.0372 C   0  0  0  0  0  0  0  0  0  0  0  0
    0.0686    5.3390    4.8815 C   0  0  0  0  0  0  0  0  0  0  0  0
    0.7285    5.4160    6.1033 C   0  0  0  0  0  0  0  0  0  0  0  0
    0.5672    6.5813    6.9912 C   0  0  0  0  0  0  0  0  0  0  0  0
  1  2  1  0
  2  3  1  0
  3  4  1  0
  4  5  1  0
  5  6  2  0
  6  7  1  0
  7  8  2  0
  8  9  1  0
  9 10  2  0
  3 11  1  0
 11 12  2  0
 11 13  1  0
 13 14  1  0
 14 15  1  0
 15 16  2  0
 16 17  1  0
 17 18  2  0
 18 19  1  0
 19 20  2  0
 18 21  1  0
 21 22  1  0
 14 23  1  0
 23 24  2  0
 23 25  2  0
 23 26  1  0
 26 27  2  0
 27 28  1  0
 28 29  2  0
 29 30  1  0
 30 31  2  0
 31 32  1  0
 10  5  1  0
 20 15  1  0
 31 26  1  0
M  END
$$$$
