
     RDKit          3D

 32 34  0  0  0  0  0  0  0  0999 V2000
    3.6597    6.4997    9.8689 C   0  0  0  0  0  0  0  0  0  0  0  0
    3.0894    5.2632    9.2250 C   0  0  0  0  0  0  0  0  0  0  0  0
    1.6430    5.1979    9.4272 N   0  0  0  0  0  0  0  0  0  0  0  0
    0.8443    6.1043    8.6550 C   0  0  0  0  0  0  0  0  0  0  0  0
    0.4028    5.6367    7.3371 C   0  0  0  0  0  0  0  0  0  0  0  0
    0.4069    4.2886    7.0259 C   0  0  0  0  0  0  0  0  0  0  0  0
   -0.0151    3.8213    5.8418 N   0  0  0  0  0  0  0  0  0  0  0  0
   -0.4742    4.6245    4.8678 C   0  0  0  0  0  0  0  0  0  0  0  0
   -0.4881    5.9726    5.1555 C   0  0  0  0  0  0  0  0  0  0  0  0
   -0.0675    6.5056    6.3529 C   0  0  0  0  0  0  0  0  0  0  0  0
    1.1615    4.2226   10.3310 C   0  0  0  0  0  0  0  0  0  0  0  0
   -0.0734    4.0021   10.3543 O   0  0  0  0  0  0  0  0  0  0  0  0
    2.0692    3.4855   11.2175 C   0  0  0  0  0  0  0  0  0  0  0  0
    2.4715    2.1938   10.7041 N   0  0  0  0  0  0  0  0  0  0  0  0
    1.5005    1.3830   10.0492 C   0  0  0  0  0  0  0  0  0  0  0  0
    1.5715    1.3365    8.6777 C   0  0  0  0  0  0  0  0  0  0  0  0
    0.6809    0.5945    8.0020 N   0  0  0  0  0  0  0  0  0  0  0  0
   -0.2869   -0.1139    8.5979 C   0  0  0  0  0  0  0  0  0  0  0  0
   -0.3753   -0.0816    9.9698 C   0  0  0  0  0  0  0  0  0  0  0  0
    0.5280    0.6754   10.7120 C   0  0  0  0  0  0  0  0  0  0  0  0
   -1.1550   -0.8451    7.8264 O   0  0  0  0  0  0  0  0  0  0  0  0
   -0.8792   -1.5472    6.6635 C   0  0  0  0  0  0  0  0  0  0  0  0
    4.0579    1.5605   10.8137 S   0  0  0  0  0  6  0  0  0  0  0  0
    4.6330    1.5863    9.4136 O   0  0  0  0  0  0  0  0  0  0  0  0
    4.8679    2.5258   11.6451 O   0  0  0  0  0  0  0  0  0  0  0  0
    4.1690   -0.0107   11.5214 C   0  0  0  0  0  0  0  0  0  0  0  0
    4.1043   -1.1186   10.6723 C   0  0  0  0  0  0  0  0  0  0  0  0
    4.1793   -2.4057   11.1461 C   0  0  0  0  0  0  0  0  0  0  0  0
    4.3232   -2.5863   12.5030 C   0  0  0  0  0  0  0  0  0  0  0  0
    4.3880   -1.5001   13.3476 C   0  0  0  0  0  0  0  0  0  0  0  0
    4.3132   -0.1914   12.8829 C   0  0  0  0  0  0  0  0  0  0  0  0
    4.3848    0.9562   13.8050 C   0  0  0  0  0  0  0  0  0  0  0  0
  1  2  1  0
  2  3  1  0
  3  4  1  0
  4  5  1  0
  5  6  2  0
  6  7  1  0
  7  8  2  0
  8  9  1  0
  9 10  2  0
  3 11  1  0
 11 12  2  0
 11 13  1  0
 13 14  1  0
 14 15  1  0
 15 16  2  0
 16 17  1  0
 17 18  2  0
 18 19  1  0
 19 20  2  0
 18 21  1  0
 21 22  1  0
 14 23  1  0
 23 24  2  0
 23 25  2  0
 23 26  1  0
 26 27  2  0
 27 28  1  0
 28 29  2  0
 29 30  1  0
 30 31  2  0
 31 32  1  0
 10  5  1  0
 20 15  1  0
 31 26  1  0
M  END
$$$$
