
     RDKit          3D

 32 34  0  0  0  0  0  0  0  0999 V2000
    0.4756    1.4341   12.8925 C   0  0  0  0  0  0  0  0  0  0  0  0
    1.5567    1.0238   11.9273 C   0  0  0  0  0  0  0  0  0  0  0  0
    2.7090    1.9169   12.0349 N   0  0  0  0  0  0  0  0  0  0  0  0
    3.8154    1.4478   12.8171 C   0  0  0  0  0  0  0  0  0  0  0  0
    3.6468    0.1564   13.4910 C   0  0  0  0  0  0  0  0  0  0  0  0
    2.5547   -0.6479   13.2180 C   0  0  0  0  0  0  0  0  0  0  0  0
    2.3809   -1.8466   13.7936 N   0  0  0  0  0  0  0  0  0  0  0  0
    3.2525   -2.3588   14.6781 C   0  0  0  0  0  0  0  0  0  0  0  0
    4.3495   -1.5750   14.9656 C   0  0  0  0  0  0  0  0  0  0  0  0
    4.5771   -0.3390   14.4042 C   0  0  0  0  0  0  0  0  0  0  0  0
    2.6459    3.1393   11.3266 C   0  0  0  0  0  0  0  0  0  0  0  0
    3.6382    3.9049   11.3864 O   0  0  0  0  0  0  0  0  0  0  0  0
    1.4621    3.5099   10.5427 C   0  0  0  0  0  0  0  0  0  0  0  0
    1.6934    3.5555    9.1150 N   0  0  0  0  0  0  0  0  0  0  0  0
    1.3883    2.4043    8.3335 C   0  0  0  0  0  0  0  0  0  0  0  0
    0.4062    1.5780    8.8246 C   0  0  0  0  0  0  0  0  0  0  0  0
    0.0770    0.4739    8.1370 N   0  0  0  0  0  0  0  0  0  0  0  0
    0.6596    0.1273    6.9821 C   0  0  0  0  0  0  0  0  0  0  0  0
    1.6445    0.9408    6.4727 C   0  0  0  0  0  0  0  0  0  0  0  0
    2.0188    2.0971    7.1529 C   0  0  0  0  0  0  0  0  0  0  0  0
    0.2590   -1.0213    6.3467 O   0  0  0  0  0  0  0  0  0  0  0  0
   -0.6596   -1.9625    6.7844 C   0  0  0  0  0  0  0  0  0  0  0  0
    2.3037    4.9173    8.2768 S   0  0  0  0  0  6  0  0  0  0  0  0
    2.4275    6.0325    9.2929 O   0  0  0  0  0  0  0  0  0  0  0  0
    3.7015    4.5726    7.8222 O   0  0  0  0  0  0  0  0  0  0  0  0
    1.3773    5.4041    6.9032 C   0  0  0  0  0  0  0  0  0  0  0  0
    1.9526    5.2563    5.6383 C   0  0  0  0  0  0  0  0  0  0  0  0
    1.2926    5.6206    4.4901 C   0  0  0  0  0  0  0  0  0  0  0  0
    0.0258    6.1449    4.6128 C   0  0  0  0  0  0  0  0  0  0  0  0
   -0.5492    6.2941    5.8555 C   0  0  0  0  0  0  0  0  0  0  0  0
    0.1065    5.9302    7.0268 C   0  0  0  0  0  0  0  0  0  0  0  0
   -0.5282    6.0987    8.3464 C   0  0  0  0  0  0  0  0  0  0  0  0
  1  2  1  0
  2  3  1  0
  3  4  1  0
  4  5  1  0
  5  6  2  0
  6  7  1  0
  7  8  2  0
  8  9  1  0
  9 10  2  0
  3 11  1  0
 11 12  2  0
 11 13  1  0
 13 14  1  0
 14 15  1  0
 15 16  2  0
 16 17  1  0
 17 18  2  0
 18 19  1  0
 19 20  2  0
 18 21  1  0
 21 22  1  0
 14 23  1  0
 23 24  2  0
 23 25  2  0
 23 26  1  0
 26 27  2  0
 27 28  1  0
 28 29  2  0
 29 30  1  0
 30 31  2  0
 31 32  1  0
 10  5  1  0
 20 15  1  0
 31 26  1  0
M  END
$$$$
