
     RDKit          3D

 32 34  0  0  0  0  0  0  0  0999 V2000
    2.5667    1.9209    5.8156 C   0  0  0  0  0  0  0  0  0  0  0  0
    1.7577    2.4505    6.9705 C   0  0  0  0  0  0  0  0  0  0  0  0
    2.3582    3.6729    7.5020 N   0  0  0  0  0  0  0  0  0  0  0  0
    2.5702    4.7425    6.5711 C   0  0  0  0  0  0  0  0  0  0  0  0
    1.3931    5.5304    6.1915 C   0  0  0  0  0  0  0  0  0  0  0  0
    0.1891    5.3689    6.8537 C   0  0  0  0  0  0  0  0  0  0  0  0
   -0.9007    6.0904    6.5534 N   0  0  0  0  0  0  0  0  0  0  0  0
   -0.9079    7.0245    5.5881 C   0  0  0  0  0  0  0  0  0  0  0  0
    0.2815    7.2035    4.9144 C   0  0  0  0  0  0  0  0  0  0  0  0
    1.4289    6.4917    5.1819 C   0  0  0  0  0  0  0  0  0  0  0  0
    2.6358    3.7050    8.8883 C   0  0  0  0  0  0  0  0  0  0  0  0
    2.2635    4.7113    9.5388 O   0  0  0  0  0  0  0  0  0  0  0  0
    3.3360    2.6012    9.5549 C   0  0  0  0  0  0  0  0  0  0  0  0
    2.4772    1.7648   10.3654 N   0  0  0  0  0  0  0  0  0  0  0  0
    1.5342    0.9170    9.7163 C   0  0  0  0  0  0  0  0  0  0  0  0
    2.0385   -0.2215    9.1352 C   0  0  0  0  0  0  0  0  0  0  0  0
    1.2015   -1.0584    8.5032 N   0  0  0  0  0  0  0  0  0  0  0  0
   -0.1168   -0.8435    8.4061 C   0  0  0  0  0  0  0  0  0  0  0  0
   -0.6421    0.2898    8.9813 C   0  0  0  0  0  0  0  0  0  0  0  0
    0.1896    1.1868    9.6474 C   0  0  0  0  0  0  0  0  0  0  0  0
   -0.8977   -1.7544    7.7399 O   0  0  0  0  0  0  0  0  0  0  0  0
   -0.4879   -2.7697    6.8898 C   0  0  0  0  0  0  0  0  0  0  0  0
    2.5186    1.7054   12.0755 S   0  0  0  0  0  6  0  0  0  0  0  0
    3.1415    3.0046   12.5397 O   0  0  0  0  0  0  0  0  0  0  0  0
    1.0879    1.7009   12.5572 O   0  0  0  0  0  0  0  0  0  0  0  0
    3.3319    0.3339   12.7384 C   0  0  0  0  0  0  0  0  0  0  0  0
    4.6948    0.4538   13.0228 C   0  0  0  0  0  0  0  0  0  0  0  0
    5.4244   -0.5853   13.5471 C   0  0  0  0  0  0  0  0  0  0  0  0
    4.7720   -1.7723   13.7925 C   0  0  0  0  0  0  0  0  0  0  0  0
    3.4288   -1.8995   13.5153 C   0  0  0  0  0  0  0  0  0  0  0  0
    2.6771   -0.8569   12.9843 C   0  0  0  0  0  0  0  0  0  0  0  0
    1.2405   -1.0153   12.6954 C   0  0  0  0  0  0  0  0  0  0  0  0
  1  2  1  0
  2  3  1  0
  3  4  1  0
  4  5  1  0
  5  6  2  0
  6  7  1  0
  7  8  2  0
  8  9  1  0
  9 10  2  0
  3 11  1  0
 11 12  2  0
 11 13  1  0
 13 14  1  0
 14 15  1  0
 15 16  2  0
 16 17  1  0
 17 18  2  0
 18 19  1  0
 19 20  2  0
 18 21  1  0
 21 22  1  0
 14 23  1  0
 23 24  2  0
 23 25  2  0
 23 26  1  0
 26 27  2  0
 27 28  1  0
 28 29  2  0
 29 30  1  0
 30 31  2  0
 31 32  1  0
 10  5  1  0
 20 15  1  0
 31 26  1  0
M  END
$$$$
