
     RDKit          3D

 32 34  0  0  0  0  0  0  0  0999 V2000
    2.0436    4.2213   13.0325 C   0  0  0  0  0  0  0  0  0  0  0  0
    1.7555    2.8308   12.5303 C   0  0  0  0  0  0  0  0  0  0  0  0
    2.9752    2.2029   12.0250 N   0  0  0  0  0  0  0  0  0  0  0  0
    3.8396    1.6018   12.9983 C   0  0  0  0  0  0  0  0  0  0  0  0
    3.9915    0.1446   12.9359 C   0  0  0  0  0  0  0  0  0  0  0  0
    3.4750   -0.5766   11.8742 C   0  0  0  0  0  0  0  0  0  0  0  0
    3.6179   -1.9058   11.7688 N   0  0  0  0  0  0  0  0  0  0  0  0
    4.2727   -2.6391   12.6843 C   0  0  0  0  0  0  0  0  0  0  0  0
    4.7967   -1.9416   13.7517 C   0  0  0  0  0  0  0  0  0  0  0  0
    4.6800   -0.5791   13.9090 C   0  0  0  0  0  0  0  0  0  0  0  0
    3.1708    2.2083   10.6244 C   0  0  0  0  0  0  0  0  0  0  0  0
    3.5055    1.1316   10.0739 O   0  0  0  0  0  0  0  0  0  0  0  0
    2.9900    3.4290    9.8306 C   0  0  0  0  0  0  0  0  0  0  0  0
    1.7630    3.4551    9.0639 N   0  0  0  0  0  0  0  0  0  0  0  0
    1.1715    2.2193    8.6737 C   0  0  0  0  0  0  0  0  0  0  0  0
    0.0135    2.3042    7.9387 C   0  0  0  0  0  0  0  0  0  0  0  0
   -0.5951    1.1749    7.5455 N   0  0  0  0  0  0  0  0  0  0  0  0
   -0.1305   -0.0478    7.8329 C   0  0  0  0  0  0  0  0  0  0  0  0
    1.0274   -0.1550    8.5670 C   0  0  0  0  0  0  0  0  0  0  0  0
    1.6928    0.9907    8.9966 C   0  0  0  0  0  0  0  0  0  0  0  0
   -0.8194   -1.1487    7.3892 O   0  0  0  0  0  0  0  0  0  0  0  0
   -1.4728   -1.3156    6.1782 C   0  0  0  0  0  0  0  0  0  0  0  0
    0.9462    4.8838    8.5936 S   0  0  0  0  0  6  0  0  0  0  0  0
   -0.4370    4.8139    9.2048 O   0  0  0  0  0  0  0  0  0  0  0  0
    1.6621    6.0426    9.2445 O   0  0  0  0  0  0  0  0  0  0  0  0
    0.8791    5.1588    6.8902 C   0  0  0  0  0  0  0  0  0  0  0  0
    2.0865    5.2657    6.1950 C   0  0  0  0  0  0  0  0  0  0  0  0
    2.1307    5.4888    4.8403 C   0  0  0  0  0  0  0  0  0  0  0  0
    0.9361    5.6068    4.1667 C   0  0  0  0  0  0  0  0  0  0  0  0
   -0.2589    5.5027    4.8437 C   0  0  0  0  0  0  0  0  0  0  0  0
   -0.3196    5.2773    6.2147 C   0  0  0  0  0  0  0  0  0  0  0  0
   -1.6100    5.1692    6.9189 C   0  0  0  0  0  0  0  0  0  0  0  0
  1  2  1  0
  2  3  1  0
  3  4  1  0
  4  5  1  0
  5  6  2  0
  6  7  1  0
  7  8  2  0
  8  9  1  0
  9 10  2  0
  3 11  1  0
 11 12  2  0
 11 13  1  0
 13 14  1  0
 14 15  1  0
 15 16  2  0
 16 17  1  0
 17 18  2  0
 18 19  1  0
 19 20  2  0
 18 21  1  0
 21 22  1  0
 14 23  1  0
 23 24  2  0
 23 25  2  0
 23 26  1  0
 26 27  2  0
 27 28  1  0
 28 29  2  0
 29 30  1  0
 30 31  2  0
 31 32  1  0
 10  5  1  0
 20 15  1  0
 31 26  1  0
M  END
$$$$
