
     RDKit          3D

 32 34  0  0  0  0  0  0  0  0999 V2000
    0.9770    7.2725    9.6106 C   0  0  0  0  0  0  0  0  0  0  0  0
    2.0927    6.2686    9.7370 C   0  0  0  0  0  0  0  0  0  0  0  0
    1.9683    5.2294    8.7163 N   0  0  0  0  0  0  0  0  0  0  0  0
    2.2332    5.6224    7.3630 C   0  0  0  0  0  0  0  0  0  0  0  0
    1.1700    5.3755    6.3838 C   0  0  0  0  0  0  0  0  0  0  0  0
    1.3589    4.4840    5.3427 C   0  0  0  0  0  0  0  0  0  0  0  0
    0.4010    4.2119    4.4445 N   0  0  0  0  0  0  0  0  0  0  0  0
   -0.8144    4.7827    4.4859 C   0  0  0  0  0  0  0  0  0  0  0  0
   -1.0260    5.6747    5.5153 C   0  0  0  0  0  0  0  0  0  0  0  0
   -0.0794    5.9900    6.4636 C   0  0  0  0  0  0  0  0  0  0  0  0
    1.6405    3.9268    9.1586 C   0  0  0  0  0  0  0  0  0  0  0  0
    1.5509    3.0191    8.2971 O   0  0  0  0  0  0  0  0  0  0  0  0
    1.4110    3.6353   10.5783 C   0  0  0  0  0  0  0  0  0  0  0  0
    1.4199    2.2238   10.8972 N   0  0  0  0  0  0  0  0  0  0  0  0
    0.6417    1.3356   10.1005 C   0  0  0  0  0  0  0  0  0  0  0  0
    0.7738    1.4652    8.7388 C   0  0  0  0  0  0  0  0  0  0  0  0
    0.0627    0.6610    7.9339 N   0  0  0  0  0  0  0  0  0  0  0  0
   -0.7800   -0.2747    8.3896 C   0  0  0  0  0  0  0  0  0  0  0  0
   -0.9266   -0.4214    9.7491 C   0  0  0  0  0  0  0  0  0  0  0  0
   -0.2084    0.3919   10.6224 C   0  0  0  0  0  0  0  0  0  0  0  0
   -1.4672   -1.0530    7.4921 O   0  0  0  0  0  0  0  0  0  0  0  0
   -1.4834   -2.4359    7.3989 C   0  0  0  0  0  0  0  0  0  0  0  0
    2.3216    1.5260   12.1737 S   0  0  0  0  0  6  0  0  0  0  0  0
    3.2274    2.6138   12.7102 O   0  0  0  0  0  0  0  0  0  0  0  0
    1.3459    1.1778   13.2718 O   0  0  0  0  0  0  0  0  0  0  0  0
    3.2092    0.1069   11.7492 C   0  0  0  0  0  0  0  0  0  0  0  0
    4.1643    0.2097   10.7344 C   0  0  0  0  0  0  0  0  0  0  0  0
    4.9141   -0.8667   10.3269 C   0  0  0  0  0  0  0  0  0  0  0  0
    4.7017   -2.0745   10.9521 C   0  0  0  0  0  0  0  0  0  0  0  0
    3.7624   -2.1852   11.9534 C   0  0  0  0  0  0  0  0  0  0  0  0
    2.9957   -1.1047   12.3765 C   0  0  0  0  0  0  0  0  0  0  0  0
    1.9959   -1.2461   13.4503 C   0  0  0  0  0  0  0  0  0  0  0  0
  1  2  1  0
  2  3  1  0
  3  4  1  0
  4  5  1  0
  5  6  2  0
  6  7  1  0
  7  8  2  0
  8  9  1  0
  9 10  2  0
  3 11  1  0
 11 12  2  0
 11 13  1  0
 13 14  1  0
 14 15  1  0
 15 16  2  0
 16 17  1  0
 17 18  2  0
 18 19  1  0
 19 20  2  0
 18 21  1  0
 21 22  1  0
 14 23  1  0
 23 24  2  0
 23 25  2  0
 23 26  1  0
 26 27  2  0
 27 28  1  0
 28 29  2  0
 29 30  1  0
 30 31  2  0
 31 32  1  0
 10  5  1  0
 20 15  1  0
 31 26  1  0
M  END
$$$$
