
     RDKit          3D

 32 34  0  0  0  0  0  0  0  0999 V2000
    1.8390    5.8683   11.2441 C   0  0  0  0  0  0  0  0  0  0  0  0
    1.1877    4.8344   10.3634 C   0  0  0  0  0  0  0  0  0  0  0  0
    2.1017    4.4114    9.3037 N   0  0  0  0  0  0  0  0  0  0  0  0
    2.2412    5.2960    8.1840 C   0  0  0  0  0  0  0  0  0  0  0  0
    1.2869    5.1241    7.0839 C   0  0  0  0  0  0  0  0  0  0  0  0
   -0.0361    4.8083    7.3368 C   0  0  0  0  0  0  0  0  0  0  0  0
   -0.9434    4.6703    6.3590 N   0  0  0  0  0  0  0  0  0  0  0  0
   -0.6387    4.8282    5.0603 C   0  0  0  0  0  0  0  0  0  0  0  0
    0.6744    5.1439    4.7838 C   0  0  0  0  0  0  0  0  0  0  0  0
    1.6453    5.2976    5.7474 C   0  0  0  0  0  0  0  0  0  0  0  0
    2.7942    3.1937    9.4973 C   0  0  0  0  0  0  0  0  0  0  0  0
    3.3787    2.6868    8.5096 O   0  0  0  0  0  0  0  0  0  0  0  0
    2.8346    2.5358   10.8083 C   0  0  0  0  0  0  0  0  0  0  0  0
    1.9849    1.3686   10.9065 N   0  0  0  0  0  0  0  0  0  0  0  0
    0.9896    1.1587    9.9093 C   0  0  0  0  0  0  0  0  0  0  0  0
    1.3983    0.5114    8.7682 C   0  0  0  0  0  0  0  0  0  0  0  0
    0.5086    0.2887    7.7889 N   0  0  0  0  0  0  0  0  0  0  0  0
   -0.7741    0.6667    7.8626 C   0  0  0  0  0  0  0  0  0  0  0  0
   -1.2040    1.3156    8.9963 C   0  0  0  0  0  0  0  0  0  0  0  0
   -0.3148    1.5682   10.0382 C   0  0  0  0  0  0  0  0  0  0  0  0
   -1.6143    0.3972    6.8115 O   0  0  0  0  0  0  0  0  0  0  0  0
   -1.4047   -0.4725    5.7527 C   0  0  0  0  0  0  0  0  0  0  0  0
    2.0963    0.1923   12.1448 S   0  0  0  0  0  6  0  0  0  0  0  0
    1.7372    0.8899   13.4394 O   0  0  0  0  0  0  0  0  0  0  0  0
    1.0233   -0.8366   11.8815 O   0  0  0  0  0  0  0  0  0  0  0  0
    3.6211   -0.6110   12.2532 C   0  0  0  0  0  0  0  0  0  0  0  0
    3.7529   -1.8548   11.6302 C   0  0  0  0  0  0  0  0  0  0  0  0
    4.9260   -2.5684   11.6678 C   0  0  0  0  0  0  0  0  0  0  0  0
    5.9922   -2.0218   12.3454 C   0  0  0  0  0  0  0  0  0  0  0  0
    5.8714   -0.7963   12.9624 C   0  0  0  0  0  0  0  0  0  0  0  0
    4.6904   -0.0623   12.9333 C   0  0  0  0  0  0  0  0  0  0  0  0
    4.5836    1.2476   13.6008 C   0  0  0  0  0  0  0  0  0  0  0  0
  1  2  1  0
  2  3  1  0
  3  4  1  0
  4  5  1  0
  5  6  2  0
  6  7  1  0
  7  8  2  0
  8  9  1  0
  9 10  2  0
  3 11  1  0
 11 12  2  0
 11 13  1  0
 13 14  1  0
 14 15  1  0
 15 16  2  0
 16 17  1  0
 17 18  2  0
 18 19  1  0
 19 20  2  0
 18 21  1  0
 21 22  1  0
 14 23  1  0
 23 24  2  0
 23 25  2  0
 23 26  1  0
 26 27  2  0
 27 28  1  0
 28 29  2  0
 29 30  1  0
 30 31  2  0
 31 32  1  0
 10  5  1  0
 20 15  1  0
 31 26  1  0
M  END
$$$$
