
     RDKit          3D

 32 34  0  0  0  0  0  0  0  0999 V2000
    3.8509    7.0589    8.5675 C   0  0  0  0  0  0  0  0  0  0  0  0
    3.2188    5.7111    8.3378 C   0  0  0  0  0  0  0  0  0  0  0  0
    1.8936    5.6526    8.9522 N   0  0  0  0  0  0  0  0  0  0  0  0
    0.8567    6.4133    8.3181 C   0  0  0  0  0  0  0  0  0  0  0  0
    0.1878    5.7901    7.1716 C   0  0  0  0  0  0  0  0  0  0  0  0
    0.3821    4.4517    6.8797 C   0  0  0  0  0  0  0  0  0  0  0  0
   -0.2334    3.8407    5.8569 N   0  0  0  0  0  0  0  0  0  0  0  0
   -1.0851    4.4795    5.0378 C   0  0  0  0  0  0  0  0  0  0  0  0
   -1.2949    5.8146    5.3096 C   0  0  0  0  0  0  0  0  0  0  0  0
   -0.6905    6.4905    6.3453 C   0  0  0  0  0  0  0  0  0  0  0  0
    1.7449    4.8215   10.0867 C   0  0  0  0  0  0  0  0  0  0  0  0
    0.5943    4.6849   10.5680 O   0  0  0  0  0  0  0  0  0  0  0  0
    2.8935    4.1355   10.6894 C   0  0  0  0  0  0  0  0  0  0  0  0
    2.7471    2.6978   10.7624 N   0  0  0  0  0  0  0  0  0  0  0  0
    2.1541    2.0118    9.6638 C   0  0  0  0  0  0  0  0  0  0  0  0
    0.7819    1.9394    9.6606 C   0  0  0  0  0  0  0  0  0  0  0  0
    0.1635    1.3012    8.6553 N   0  0  0  0  0  0  0  0  0  0  0  0
    0.8180    0.7230    7.6400 C   0  0  0  0  0  0  0  0  0  0  0  0
    2.1918    0.7844    7.6238 C   0  0  0  0  0  0  0  0  0  0  0  0
    2.8757    1.4365    8.6469 C   0  0  0  0  0  0  0  0  0  0  0  0
    0.1028    0.0910    6.6539 O   0  0  0  0  0  0  0  0  0  0  0  0
   -1.2505   -0.2086    6.6400 C   0  0  0  0  0  0  0  0  0  0  0  0
    3.2543    1.7397   12.0870 S   0  0  0  0  0  6  0  0  0  0  0  0
    4.7658    1.6819   12.0271 O   0  0  0  0  0  0  0  0  0  0  0  0
    2.8874    2.4878   13.3460 O   0  0  0  0  0  0  0  0  0  0  0  0
    2.5566    0.1616   12.1557 C   0  0  0  0  0  0  0  0  0  0  0  0
    3.1930   -0.8678   11.4572 C   0  0  0  0  0  0  0  0  0  0  0  0
    2.7080   -2.1529   11.4506 C   0  0  0  0  0  0  0  0  0  0  0  0
    1.5582   -2.4121   12.1615 C   0  0  0  0  0  0  0  0  0  0  0  0
    0.9242   -1.4036   12.8530 C   0  0  0  0  0  0  0  0  0  0  0  0
    1.4029   -0.0980   12.8688 C   0  0  0  0  0  0  0  0  0  0  0  0
    0.7080    0.9658   13.6159 C   0  0  0  0  0  0  0  0  0  0  0  0
  1  2  1  0
  2  3  1  0
  3  4  1  0
  4  5  1  0
  5  6  2  0
  6  7  1  0
  7  8  2  0
  8  9  1  0
  9 10  2  0
  3 11  1  0
 11 12  2  0
 11 13  1  0
 13 14  1  0
 14 15  1  0
 15 16  2  0
 16 17  1  0
 17 18  2  0
 18 19  1  0
 19 20  2  0
 18 21  1  0
 21 22  1  0
 14 23  1  0
 23 24  2  0
 23 25  2  0
 23 26  1  0
 26 27  2  0
 27 28  1  0
 28 29  2  0
 29 30  1  0
 30 31  2  0
 31 32  1  0
 10  5  1  0
 20 15  1  0
 31 26  1  0
M  END
$$$$
