
     RDKit          3D

 32 34  0  0  0  0  0  0  0  0999 V2000
    3.1843    7.2834    9.2861 C   0  0  0  0  0  0  0  0  0  0  0  0
    2.9390    5.8522    9.6862 C   0  0  0  0  0  0  0  0  0  0  0  0
    1.8361    5.2834    8.9135 N   0  0  0  0  0  0  0  0  0  0  0  0
    0.9540    6.2137    8.2713 C   0  0  0  0  0  0  0  0  0  0  0  0
    0.6035    5.9349    6.8750 C   0  0  0  0  0  0  0  0  0  0  0  0
    1.0869    4.8077    6.2347 C   0  0  0  0  0  0  0  0  0  0  0  0
    0.7663    4.5053    4.9682 N   0  0  0  0  0  0  0  0  0  0  0  0
   -0.0480    5.2720    4.2241 C   0  0  0  0  0  0  0  0  0  0  0  0
   -0.5425    6.4010    4.8414 C   0  0  0  0  0  0  0  0  0  0  0  0
   -0.2468    6.7582    6.1375 C   0  0  0  0  0  0  0  0  0  0  0  0
    1.7636    3.8732    8.8348 C   0  0  0  0  0  0  0  0  0  0  0  0
    0.8719    3.3704    8.1092 O   0  0  0  0  0  0  0  0  0  0  0  0
    2.6973    3.0160    9.5739 C   0  0  0  0  0  0  0  0  0  0  0  0
    2.0647    1.9040   10.2501 N   0  0  0  0  0  0  0  0  0  0  0  0
    1.3381    0.9540    9.4763 C   0  0  0  0  0  0  0  0  0  0  0  0
   -0.0317    1.0557    9.5174 C   0  0  0  0  0  0  0  0  0  0  0  0
   -0.7729    0.1860    8.8141 N   0  0  0  0  0  0  0  0  0  0  0  0
   -0.2450   -0.7890    8.0631 C   0  0  0  0  0  0  0  0  0  0  0  0
    1.1239   -0.9079    8.0076 C   0  0  0  0  0  0  0  0  0  0  0  0
    1.9327   -0.0272    8.7218 C   0  0  0  0  0  0  0  0  0  0  0  0
   -1.0806   -1.6342    7.3767 O   0  0  0  0  0  0  0  0  0  0  0  0
   -2.3616   -1.3773    6.9137 C   0  0  0  0  0  0  0  0  0  0  0  0
    2.1361    1.6310   11.9383 S   0  0  0  0  0  6  0  0  0  0  0  0
    2.6504    2.9101   12.5633 O   0  0  0  0  0  0  0  0  0  0  0  0
    0.7182    1.4393   12.4202 O   0  0  0  0  0  0  0  0  0  0  0  0
    3.0749    0.2631   12.4171 C   0  0  0  0  0  0  0  0  0  0  0  0
    2.3961   -0.8865   12.8294 C   0  0  0  0  0  0  0  0  0  0  0  0
    3.0593   -2.0200   13.2320 C   0  0  0  0  0  0  0  0  0  0  0  0
    4.4356   -2.0006   13.2204 C   0  0  0  0  0  0  0  0  0  0  0  0
    5.1131   -0.8718   12.8155 C   0  0  0  0  0  0  0  0  0  0  0  0
    4.4557    0.2831   12.4056 C   0  0  0  0  0  0  0  0  0  0  0  0
    5.2013    1.4799   11.9761 C   0  0  0  0  0  0  0  0  0  0  0  0
  1  2  1  0
  2  3  1  0
  3  4  1  0
  4  5  1  0
  5  6  2  0
  6  7  1  0
  7  8  2  0
  8  9  1  0
  9 10  2  0
  3 11  1  0
 11 12  2  0
 11 13  1  0
 13 14  1  0
 14 15  1  0
 15 16  2  0
 16 17  1  0
 17 18  2  0
 18 19  1  0
 19 20  2  0
 18 21  1  0
 21 22  1  0
 14 23  1  0
 23 24  2  0
 23 25  2  0
 23 26  1  0
 26 27  2  0
 27 28  1  0
 28 29  2  0
 29 30  1  0
 30 31  2  0
 31 32  1  0
 10  5  1  0
 20 15  1  0
 31 26  1  0
M  END
$$$$
