
     RDKit          3D

 32 34  0  0  0  0  0  0  0  0999 V2000
    2.5908    7.2320    7.8925 C   0  0  0  0  0  0  0  0  0  0  0  0
    1.8571    6.5051    8.9889 C   0  0  0  0  0  0  0  0  0  0  0  0
    0.7685    5.7018    8.4351 N   0  0  0  0  0  0  0  0  0  0  0  0
    0.3140    6.0532    7.1214 C   0  0  0  0  0  0  0  0  0  0  0  0
    0.4335    5.0237    6.0841 C   0  0  0  0  0  0  0  0  0  0  0  0
    0.7973    3.7291    6.4095 C   0  0  0  0  0  0  0  0  0  0  0  0
    0.8901    2.7548    5.4927 N   0  0  0  0  0  0  0  0  0  0  0  0
    0.6372    2.9597    4.1895 C   0  0  0  0  0  0  0  0  0  0  0  0
    0.2722    4.2426    3.8413 C   0  0  0  0  0  0  0  0  0  0  0  0
    0.1611    5.2790    4.7404 C   0  0  0  0  0  0  0  0  0  0  0  0
    0.2927    4.6290    9.2241 C   0  0  0  0  0  0  0  0  0  0  0  0
   -0.4503    3.7802    8.6749 O   0  0  0  0  0  0  0  0  0  0  0  0
    0.6512    4.5029   10.6414 C   0  0  0  0  0  0  0  0  0  0  0  0
    1.2113    3.2160   10.9936 N   0  0  0  0  0  0  0  0  0  0  0  0
    0.5757    2.0359   10.5112 C   0  0  0  0  0  0  0  0  0  0  0  0
    1.0370    1.5419    9.3147 C   0  0  0  0  0  0  0  0  0  0  0  0
    0.4750    0.4355    8.8044 N   0  0  0  0  0  0  0  0  0  0  0  0
   -0.5239   -0.2242    9.4047 C   0  0  0  0  0  0  0  0  0  0  0  0
   -1.0000    0.2531   10.6033 C   0  0  0  0  0  0  0  0  0  0  0  0
   -0.4467    1.3987   11.1702 C   0  0  0  0  0  0  0  0  0  0  0  0
   -1.0387   -1.3484    8.8091 O   0  0  0  0  0  0  0  0  0  0  0  0
   -0.5057   -2.0769    7.7572 C   0  0  0  0  0  0  0  0  0  0  0  0
    2.6131    3.0004   11.9517 S   0  0  0  0  0  6  0  0  0  0  0  0
    2.8923    4.3309   12.6176 O   0  0  0  0  0  0  0  0  0  0  0  0
    2.2607    2.0211   13.0453 O   0  0  0  0  0  0  0  0  0  0  0  0
    3.9946    2.4092   11.1010 C   0  0  0  0  0  0  0  0  0  0  0  0
    4.7606    3.3261   10.3764 C   0  0  0  0  0  0  0  0  0  0  0  0
    5.8731    2.9463    9.6658 C   0  0  0  0  0  0  0  0  0  0  0  0
    6.2263    1.6160    9.6827 C   0  0  0  0  0  0  0  0  0  0  0  0
    5.4772    0.7051   10.3943 C   0  0  0  0  0  0  0  0  0  0  0  0
    4.3485    1.0744   11.1180 C   0  0  0  0  0  0  0  0  0  0  0  0
    3.5615    0.0825   11.8726 C   0  0  0  0  0  0  0  0  0  0  0  0
  1  2  1  0
  2  3  1  0
  3  4  1  0
  4  5  1  0
  5  6  2  0
  6  7  1  0
  7  8  2  0
  8  9  1  0
  9 10  2  0
  3 11  1  0
 11 12  2  0
 11 13  1  0
 13 14  1  0
 14 15  1  0
 15 16  2  0
 16 17  1  0
 17 18  2  0
 18 19  1  0
 19 20  2  0
 18 21  1  0
 21 22  1  0
 14 23  1  0
 23 24  2  0
 23 25  2  0
 23 26  1  0
 26 27  2  0
 27 28  1  0
 28 29  2  0
 29 30  1  0
 30 31  2  0
 31 32  1  0
 10  5  1  0
 20 15  1  0
 31 26  1  0
M  END
$$$$
