
     RDKit          3D

 32 34  0  0  0  0  0  0  0  0999 V2000
    3.1144    2.9948   13.6068 C   0  0  0  0  0  0  0  0  0  0  0  0
    3.3095    3.8669   12.3943 C   0  0  0  0  0  0  0  0  0  0  0  0
    2.0297    4.4038   11.9350 N   0  0  0  0  0  0  0  0  0  0  0  0
    1.6859    5.7207   12.3859 C   0  0  0  0  0  0  0  0  0  0  0  0
    2.4464    6.8349   11.8109 C   0  0  0  0  0  0  0  0  0  0  0  0
    3.7752    7.0312   12.1423 C   0  0  0  0  0  0  0  0  0  0  0  0
    4.5102    8.0218   11.6160 N   0  0  0  0  0  0  0  0  0  0  0  0
    4.0142    8.8988   10.7275 C   0  0  0  0  0  0  0  0  0  0  0  0
    2.6914    8.7226   10.3816 C   0  0  0  0  0  0  0  0  0  0  0  0
    1.8923    7.7238   10.8901 C   0  0  0  0  0  0  0  0  0  0  0  0
    1.2691    3.5964   11.0577 C   0  0  0  0  0  0  0  0  0  0  0  0
    0.2446    4.0991   10.5363 O   0  0  0  0  0  0  0  0  0  0  0  0
    1.6576    2.2132   10.7595 C   0  0  0  0  0  0  0  0  0  0  0  0
    1.7469    1.9199    9.3453 N   0  0  0  0  0  0  0  0  0  0  0  0
    1.1487    0.7242    8.8535 C   0  0  0  0  0  0  0  0  0  0  0  0
   -0.1335    0.8385    8.3726 C   0  0  0  0  0  0  0  0  0  0  0  0
   -0.7540   -0.2535    7.9005 N   0  0  0  0  0  0  0  0  0  0  0  0
   -0.1855   -1.4656    7.8706 C   0  0  0  0  0  0  0  0  0  0  0  0
    1.0975   -1.6018    8.3466 C   0  0  0  0  0  0  0  0  0  0  0  0
    1.7799   -0.4952    8.8464 C   0  0  0  0  0  0  0  0  0  0  0  0
   -0.8959   -2.5277    7.3697 O   0  0  0  0  0  0  0  0  0  0  0  0
   -1.9829   -2.4978    6.5101 C   0  0  0  0  0  0  0  0  0  0  0  0
    2.5187    2.9256    8.1954 S   0  0  0  0  0  6  0  0  0  0  0  0
    3.1481    4.0648    8.9685 O   0  0  0  0  0  0  0  0  0  0  0  0
    3.6448    2.1256    7.5864 O   0  0  0  0  0  0  0  0  0  0  0  0
    1.4976    3.5012    6.9273 C   0  0  0  0  0  0  0  0  0  0  0  0
    0.8259    4.7106    7.1240 C   0  0  0  0  0  0  0  0  0  0  0  0
   -0.0104    5.2432    6.1733 C   0  0  0  0  0  0  0  0  0  0  0  0
   -0.1767    4.5471    4.9975 C   0  0  0  0  0  0  0  0  0  0  0  0
    0.4815    3.3542    4.7949 C   0  0  0  0  0  0  0  0  0  0  0  0
    1.3309    2.8024    5.7479 C   0  0  0  0  0  0  0  0  0  0  0  0
    2.0252    1.5242    5.5098 C   0  0  0  0  0  0  0  0  0  0  0  0
  1  2  1  0
  2  3  1  0
  3  4  1  0
  4  5  1  0
  5  6  2  0
  6  7  1  0
  7  8  2  0
  8  9  1  0
  9 10  2  0
  3 11  1  0
 11 12  2  0
 11 13  1  0
 13 14  1  0
 14 15  1  0
 15 16  2  0
 16 17  1  0
 17 18  2  0
 18 19  1  0
 19 20  2  0
 18 21  1  0
 21 22  1  0
 14 23  1  0
 23 24  2  0
 23 25  2  0
 23 26  1  0
 26 27  2  0
 27 28  1  0
 28 29  2  0
 29 30  1  0
 30 31  2  0
 31 32  1  0
 10  5  1  0
 20 15  1  0
 31 26  1  0
M  END
$$$$
