
     RDKit          3D

 32 34  0  0  0  0  0  0  0  0999 V2000
    1.5807    2.6386   13.2881 C   0  0  0  0  0  0  0  0  0  0  0  0
    1.9512    2.4196   11.8446 C   0  0  0  0  0  0  0  0  0  0  0  0
    2.3814    3.6732   11.2277 N   0  0  0  0  0  0  0  0  0  0  0  0
    3.7473    4.0566   11.4357 C   0  0  0  0  0  0  0  0  0  0  0  0
    4.7381    2.9762   11.4716 C   0  0  0  0  0  0  0  0  0  0  0  0
    4.3964    1.6889   11.0969 C   0  0  0  0  0  0  0  0  0  0  0  0
    5.2816    0.6816   11.0904 N   0  0  0  0  0  0  0  0  0  0  0  0
    6.5666    0.8439   11.4464 C   0  0  0  0  0  0  0  0  0  0  0  0
    6.9307    2.1189   11.8234 C   0  0  0  0  0  0  0  0  0  0  0  0
    6.0641    3.1881   11.8479 C   0  0  0  0  0  0  0  0  0  0  0  0
    1.4276    4.3700   10.4501 C   0  0  0  0  0  0  0  0  0  0  0  0
    1.6392    5.5830   10.2091 O   0  0  0  0  0  0  0  0  0  0  0  0
    0.2252    3.7045    9.9360 C   0  0  0  0  0  0  0  0  0  0  0  0
    0.5003    2.5356    9.1285 N   0  0  0  0  0  0  0  0  0  0  0  0
   -0.0054    1.2736    9.5535 C   0  0  0  0  0  0  0  0  0  0  0  0
   -0.1249    1.0915   10.9103 C   0  0  0  0  0  0  0  0  0  0  0  0
   -0.5901   -0.0785   11.3741 N   0  0  0  0  0  0  0  0  0  0  0  0
   -0.9503   -1.0929   10.5775 C   0  0  0  0  0  0  0  0  0  0  0  0
   -0.8392   -0.9312    9.2164 C   0  0  0  0  0  0  0  0  0  0  0  0
   -0.3609    0.2665    8.6904 C   0  0  0  0  0  0  0  0  0  0  0  0
   -1.4158   -2.2550   11.1400 O   0  0  0  0  0  0  0  0  0  0  0  0
   -2.0496   -2.4174   12.3620 C   0  0  0  0  0  0  0  0  0  0  0  0
    1.3917    2.5570    7.6675 S   0  0  0  0  0  6  0  0  0  0  0  0
    2.8553    2.5899    8.0528 O   0  0  0  0  0  0  0  0  0  0  0  0
    1.1440    1.2394    6.9736 O   0  0  0  0  0  0  0  0  0  0  0  0
    0.9870    3.8396    6.5845 C   0  0  0  0  0  0  0  0  0  0  0  0
    1.8903    4.8977    6.4542 C   0  0  0  0  0  0  0  0  0  0  0  0
    1.6505    5.9628    5.6207 C   0  0  0  0  0  0  0  0  0  0  0  0
    0.4776    5.9668    4.9002 C   0  0  0  0  0  0  0  0  0  0  0  0
   -0.4186    4.9280    5.0222 C   0  0  0  0  0  0  0  0  0  0  0  0
   -0.1899    3.8433    5.8620 C   0  0  0  0  0  0  0  0  0  0  0  0
   -1.1632    2.7424    5.9770 C   0  0  0  0  0  0  0  0  0  0  0  0
  1  2  1  0
  2  3  1  0
  3  4  1  0
  4  5  1  0
  5  6  2  0
  6  7  1  0
  7  8  2  0
  8  9  1  0
  9 10  2  0
  3 11  1  0
 11 12  2  0
 11 13  1  0
 13 14  1  0
 14 15  1  0
 15 16  2  0
 16 17  1  0
 17 18  2  0
 18 19  1  0
 19 20  2  0
 18 21  1  0
 21 22  1  0
 14 23  1  0
 23 24  2  0
 23 25  2  0
 23 26  1  0
 26 27  2  0
 27 28  1  0
 28 29  2  0
 29 30  1  0
 30 31  2  0
 31 32  1  0
 10  5  1  0
 20 15  1  0
 31 26  1  0
M  END
$$$$
