
     RDKit          3D

 32 34  0  0  0  0  0  0  0  0999 V2000
    3.3890    7.1356    9.5068 C   0  0  0  0  0  0  0  0  0  0  0  0
    2.9004    6.3240    8.3357 C   0  0  0  0  0  0  0  0  0  0  0  0
    1.8575    5.3899    8.7561 N   0  0  0  0  0  0  0  0  0  0  0  0
    0.5066    5.8673    8.7013 C   0  0  0  0  0  0  0  0  0  0  0  0
   -0.1602    5.8134    7.3964 C   0  0  0  0  0  0  0  0  0  0  0  0
    0.0614    4.7572    6.5307 C   0  0  0  0  0  0  0  0  0  0  0  0
   -0.5509    4.6596    5.3416 N   0  0  0  0  0  0  0  0  0  0  0  0
   -1.4257    5.5781    4.8996 C   0  0  0  0  0  0  0  0  0  0  0  0
   -1.6629    6.6402    5.7458 C   0  0  0  0  0  0  0  0  0  0  0  0
   -1.0631    6.7895    6.9757 C   0  0  0  0  0  0  0  0  0  0  0  0
    2.2696    4.0918    9.1371 C   0  0  0  0  0  0  0  0  0  0  0  0
    3.1654    3.5364    8.4564 O   0  0  0  0  0  0  0  0  0  0  0  0
    1.6753    3.4075   10.2910 C   0  0  0  0  0  0  0  0  0  0  0  0
    2.1151    2.0385   10.4529 N   0  0  0  0  0  0  0  0  0  0  0  0
    1.3896    1.0027    9.7971 C   0  0  0  0  0  0  0  0  0  0  0  0
    2.0203    0.3941    8.7387 C   0  0  0  0  0  0  0  0  0  0  0  0
    1.3867   -0.5855    8.0760 N   0  0  0  0  0  0  0  0  0  0  0  0
    0.1567   -1.0099    8.3931 C   0  0  0  0  0  0  0  0  0  0  0  0
   -0.4920   -0.4145    9.4494 C   0  0  0  0  0  0  0  0  0  0  0  0
    0.1275    0.6067   10.1658 C   0  0  0  0  0  0  0  0  0  0  0  0
   -0.4149   -2.0187    7.6589 O   0  0  0  0  0  0  0  0  0  0  0  0
    0.1810   -3.1829    7.1995 C   0  0  0  0  0  0  0  0  0  0  0  0
    3.4738    1.5618   11.3782 S   0  0  0  0  0  6  0  0  0  0  0  0
    4.6791    1.6753   10.4693 O   0  0  0  0  0  0  0  0  0  0  0  0
    3.6471    2.5831   12.4764 O   0  0  0  0  0  0  0  0  0  0  0  0
    3.3570   -0.0064   12.0917 C   0  0  0  0  0  0  0  0  0  0  0  0
    3.9945   -1.0695   11.4468 C   0  0  0  0  0  0  0  0  0  0  0  0
    3.9517   -2.3516   11.9381 C   0  0  0  0  0  0  0  0  0  0  0  0
    3.2537   -2.5727   13.1038 C   0  0  0  0  0  0  0  0  0  0  0  0
    2.6223   -1.5308   13.7462 C   0  0  0  0  0  0  0  0  0  0  0  0
    2.6564   -0.2279   13.2610 C   0  0  0  0  0  0  0  0  0  0  0  0
    1.9733    0.8721   13.9652 C   0  0  0  0  0  0  0  0  0  0  0  0
  1  2  1  0
  2  3  1  0
  3  4  1  0
  4  5  1  0
  5  6  2  0
  6  7  1  0
  7  8  2  0
  8  9  1  0
  9 10  2  0
  3 11  1  0
 11 12  2  0
 11 13  1  0
 13 14  1  0
 14 15  1  0
 15 16  2  0
 16 17  1  0
 17 18  2  0
 18 19  1  0
 19 20  2  0
 18 21  1  0
 21 22  1  0
 14 23  1  0
 23 24  2  0
 23 25  2  0
 23 26  1  0
 26 27  2  0
 27 28  1  0
 28 29  2  0
 29 30  1  0
 30 31  2  0
 31 32  1  0
 10  5  1  0
 20 15  1  0
 31 26  1  0
M  END
$$$$
