
     RDKit          3D

 32 34  0  0  0  0  0  0  0  0999 V2000
    4.1069    6.0098    8.9034 C   0  0  0  0  0  0  0  0  0  0  0  0
    3.2411    4.7869    8.7496 C   0  0  0  0  0  0  0  0  0  0  0  0
    1.8294    5.1324    8.9070 N   0  0  0  0  0  0  0  0  0  0  0  0
    1.2847    6.0594    7.9583 C   0  0  0  0  0  0  0  0  0  0  0  0
    0.5940    5.4873    6.7981 C   0  0  0  0  0  0  0  0  0  0  0  0
    0.5704    4.1195    6.5913 C   0  0  0  0  0  0  0  0  0  0  0  0
   -0.0737    3.5582    5.5577 N   0  0  0  0  0  0  0  0  0  0  0  0
   -0.7451    4.2792    4.6445 C   0  0  0  0  0  0  0  0  0  0  0  0
   -0.7359    5.6451    4.8303 C   0  0  0  0  0  0  0  0  0  0  0  0
   -0.0922    6.2729    5.8726 C   0  0  0  0  0  0  0  0  0  0  0  0
    1.1211    4.4921    9.9502 C   0  0  0  0  0  0  0  0  0  0  0  0
   -0.1225    4.3755    9.8307 O   0  0  0  0  0  0  0  0  0  0  0  0
    1.8093    3.9762   11.1390 C   0  0  0  0  0  0  0  0  0  0  0  0
    1.9895    2.5404   11.1369 N   0  0  0  0  0  0  0  0  0  0  0  0
    1.2082    1.7522   10.2439 C   0  0  0  0  0  0  0  0  0  0  0  0
   -0.0888    1.5060   10.6253 C   0  0  0  0  0  0  0  0  0  0  0  0
   -0.8744    0.7647    9.8293 N   0  0  0  0  0  0  0  0  0  0  0  0
   -0.4597    0.2444    8.6671 C   0  0  0  0  0  0  0  0  0  0  0  0
    0.8347    0.4794    8.2665 C   0  0  0  0  0  0  0  0  0  0  0  0
    1.6859    1.2433    9.0613 C   0  0  0  0  0  0  0  0  0  0  0  0
   -1.3330   -0.5025    7.9167 O   0  0  0  0  0  0  0  0  0  0  0  0
   -1.0340   -1.4268    6.9280 C   0  0  0  0  0  0  0  0  0  0  0  0
    3.1003    1.7033   12.1343 S   0  0  0  0  0  6  0  0  0  0  0  0
    4.4427    2.3783   11.9502 O   0  0  0  0  0  0  0  0  0  0  0  0
    2.6785    1.9349   13.5653 O   0  0  0  0  0  0  0  0  0  0  0  0
    3.1962    0.0024   11.8522 C   0  0  0  0  0  0  0  0  0  0  0  0
    2.4443   -0.8420   12.6732 C   0  0  0  0  0  0  0  0  0  0  0  0
    2.4617   -2.2076   12.5257 C   0  0  0  0  0  0  0  0  0  0  0  0
    3.2511   -2.7390   11.5311 C   0  0  0  0  0  0  0  0  0  0  0  0
    3.9955   -1.9142   10.7169 C   0  0  0  0  0  0  0  0  0  0  0  0
    3.9884   -0.5303   10.8543 C   0  0  0  0  0  0  0  0  0  0  0  0
    4.7931    0.3333    9.9716 C   0  0  0  0  0  0  0  0  0  0  0  0
  1  2  1  0
  2  3  1  0
  3  4  1  0
  4  5  1  0
  5  6  2  0
  6  7  1  0
  7  8  2  0
  8  9  1  0
  9 10  2  0
  3 11  1  0
 11 12  2  0
 11 13  1  0
 13 14  1  0
 14 15  1  0
 15 16  2  0
 16 17  1  0
 17 18  2  0
 18 19  1  0
 19 20  2  0
 18 21  1  0
 21 22  1  0
 14 23  1  0
 23 24  2  0
 23 25  2  0
 23 26  1  0
 26 27  2  0
 27 28  1  0
 28 29  2  0
 29 30  1  0
 30 31  2  0
 31 32  1  0
 10  5  1  0
 20 15  1  0
 31 26  1  0
M  END
$$$$
