
     RDKit          3D

 32 34  0  0  0  0  0  0  0  0999 V2000
    0.3578    2.1529    7.3836 C   0  0  0  0  0  0  0  0  0  0  0  0
    1.7723    2.6006    7.6431 C   0  0  0  0  0  0  0  0  0  0  0  0
    1.7902    3.7607    8.5326 N   0  0  0  0  0  0  0  0  0  0  0  0
    2.0972    5.0262    7.9327 C   0  0  0  0  0  0  0  0  0  0  0  0
    1.2267    5.4663    6.8378 C   0  0  0  0  0  0  0  0  0  0  0  0
    0.2004    4.6590    6.3805 C   0  0  0  0  0  0  0  0  0  0  0  0
   -0.6328    5.0385    5.4006 N   0  0  0  0  0  0  0  0  0  0  0  0
   -0.5360    6.2301    4.7882 C   0  0  0  0  0  0  0  0  0  0  0  0
    0.4796    7.0523    5.2276 C   0  0  0  0  0  0  0  0  0  0  0  0
    1.3616    6.7135    6.2286 C   0  0  0  0  0  0  0  0  0  0  0  0
    1.4633    3.5374    9.8903 C   0  0  0  0  0  0  0  0  0  0  0  0
    1.5163    4.5145   10.6756 O   0  0  0  0  0  0  0  0  0  0  0  0
    1.0726    2.2089   10.3754 C   0  0  0  0  0  0  0  0  0  0  0  0
    2.1749    1.4217   10.8846 N   0  0  0  0  0  0  0  0  0  0  0  0
    2.6174    0.2947   10.1342 C   0  0  0  0  0  0  0  0  0  0  0  0
    1.7267   -0.7448   10.0148 C   0  0  0  0  0  0  0  0  0  0  0  0
    2.0864   -1.8377    9.3245 N   0  0  0  0  0  0  0  0  0  0  0  0
    3.2818   -1.9739    8.7363 C   0  0  0  0  0  0  0  0  0  0  0  0
    4.1879   -0.9449    8.8431 C   0  0  0  0  0  0  0  0  0  0  0  0
    3.8574    0.2085    9.5505 C   0  0  0  0  0  0  0  0  0  0  0  0
    3.5642   -3.1283    8.0500 O   0  0  0  0  0  0  0  0  0  0  0  0
    2.8732   -4.3295    8.0799 C   0  0  0  0  0  0  0  0  0  0  0  0
    3.0116    1.7562   12.3399 S   0  0  0  0  0  6  0  0  0  0  0  0
    4.3998    2.2144   11.9466 O   0  0  0  0  0  0  0  0  0  0  0  0
    2.3232    2.9314   12.9911 O   0  0  0  0  0  0  0  0  0  0  0  0
    3.0654    0.4495   13.4675 C   0  0  0  0  0  0  0  0  0  0  0  0
    4.2727   -0.2379   13.6177 C   0  0  0  0  0  0  0  0  0  0  0  0
    4.4078   -1.2928   14.4871 C   0  0  0  0  0  0  0  0  0  0  0  0
    3.3067   -1.6669   15.2236 C   0  0  0  0  0  0  0  0  0  0  0  0
    2.1127   -0.9950   15.0821 C   0  0  0  0  0  0  0  0  0  0  0  0
    1.9605    0.0744   14.2061 C   0  0  0  0  0  0  0  0  0  0  0  0
    0.6729    0.7791   14.0708 C   0  0  0  0  0  0  0  0  0  0  0  0
  1  2  1  0
  2  3  1  0
  3  4  1  0
  4  5  1  0
  5  6  2  0
  6  7  1  0
  7  8  2  0
  8  9  1  0
  9 10  2  0
  3 11  1  0
 11 12  2  0
 11 13  1  0
 13 14  1  0
 14 15  1  0
 15 16  2  0
 16 17  1  0
 17 18  2  0
 18 19  1  0
 19 20  2  0
 18 21  1  0
 21 22  1  0
 14 23  1  0
 23 24  2  0
 23 25  2  0
 23 26  1  0
 26 27  2  0
 27 28  1  0
 28 29  2  0
 29 30  1  0
 30 31  2  0
 31 32  1  0
 10  5  1  0
 20 15  1  0
 31 26  1  0
M  END
$$$$
