
     RDKit          3D

 32 34  0  0  0  0  0  0  0  0999 V2000
    4.3083    2.1706   12.6588 C   0  0  0  0  0  0  0  0  0  0  0  0
    3.9290    3.5938   12.3438 C   0  0  0  0  0  0  0  0  0  0  0  0
    2.4864    3.7082   12.1362 N   0  0  0  0  0  0  0  0  0  0  0  0
    1.7078    4.1440   13.2586 C   0  0  0  0  0  0  0  0  0  0  0  0
    1.2174    3.1020   14.1663 C   0  0  0  0  0  0  0  0  0  0  0  0
    1.5411    1.7728   13.9598 C   0  0  0  0  0  0  0  0  0  0  0  0
    1.1344    0.7959   14.7834 N   0  0  0  0  0  0  0  0  0  0  0  0
    0.3824    1.0315   15.8713 C   0  0  0  0  0  0  0  0  0  0  0  0
    0.0475    2.3495   16.0979 C   0  0  0  0  0  0  0  0  0  0  0  0
    0.4381    3.3903   15.2863 C   0  0  0  0  0  0  0  0  0  0  0  0
    1.9964    3.4204   10.8412 C   0  0  0  0  0  0  0  0  0  0  0  0
    0.8994    3.9263   10.5024 O   0  0  0  0  0  0  0  0  0  0  0  0
    2.7400    2.5588    9.9150 C   0  0  0  0  0  0  0  0  0  0  0  0
    2.3346    2.6943    8.5326 N   0  0  0  0  0  0  0  0  0  0  0  0
    1.6347    1.6186    7.9143 C   0  0  0  0  0  0  0  0  0  0  0  0
    0.3315    1.4337    8.3089 C   0  0  0  0  0  0  0  0  0  0  0  0
   -0.3796    0.4332    7.7671 N   0  0  0  0  0  0  0  0  0  0  0  0
    0.1164   -0.4070    6.8498 C   0  0  0  0  0  0  0  0  0  0  0  0
    1.4185   -0.2391    6.4405 C   0  0  0  0  0  0  0  0  0  0  0  0
    2.1941    0.7862    6.9762 C   0  0  0  0  0  0  0  0  0  0  0  0
   -0.6844   -1.4032    6.3499 O   0  0  0  0  0  0  0  0  0  0  0  0
   -1.6479   -2.1406    7.0201 C   0  0  0  0  0  0  0  0  0  0  0  0
    2.6251    4.0797    7.5704 S   0  0  0  0  0  6  0  0  0  0  0  0
    3.3698    5.0663    8.4442 O   0  0  0  0  0  0  0  0  0  0  0  0
    3.5661    3.6664    6.4646 O   0  0  0  0  0  0  0  0  0  0  0  0
    1.2164    4.7869    6.8653 C   0  0  0  0  0  0  0  0  0  0  0  0
    0.5665    5.8007    7.5742 C   0  0  0  0  0  0  0  0  0  0  0  0
   -0.5630    6.4174    7.0941 C   0  0  0  0  0  0  0  0  0  0  0  0
   -1.0522    6.0086    5.8741 C   0  0  0  0  0  0  0  0  0  0  0  0
   -0.4181    5.0101    5.1683 C   0  0  0  0  0  0  0  0  0  0  0  0
    0.7259    4.3763    5.6414 C   0  0  0  0  0  0  0  0  0  0  0  0
    1.3883    3.3099    4.8690 C   0  0  0  0  0  0  0  0  0  0  0  0
  1  2  1  0
  2  3  1  0
  3  4  1  0
  4  5  1  0
  5  6  2  0
  6  7  1  0
  7  8  2  0
  8  9  1  0
  9 10  2  0
  3 11  1  0
 11 12  2  0
 11 13  1  0
 13 14  1  0
 14 15  1  0
 15 16  2  0
 16 17  1  0
 17 18  2  0
 18 19  1  0
 19 20  2  0
 18 21  1  0
 21 22  1  0
 14 23  1  0
 23 24  2  0
 23 25  2  0
 23 26  1  0
 26 27  2  0
 27 28  1  0
 28 29  2  0
 29 30  1  0
 30 31  2  0
 31 32  1  0
 10  5  1  0
 20 15  1  0
 31 26  1  0
M  END
$$$$
