
     RDKit          3D

 32 34  0  0  0  0  0  0  0  0999 V2000
    1.4043    7.5774   10.2323 C   0  0  0  0  0  0  0  0  0  0  0  0
    0.7639    6.3674    9.6041 C   0  0  0  0  0  0  0  0  0  0  0  0
    1.7626    5.5616    8.9037 N   0  0  0  0  0  0  0  0  0  0  0  0
    2.2567    6.0853    7.6638 C   0  0  0  0  0  0  0  0  0  0  0  0
    1.5884    5.6284    6.4411 C   0  0  0  0  0  0  0  0  0  0  0  0
    0.3889    4.9416    6.5038 C   0  0  0  0  0  0  0  0  0  0  0  0
   -0.2651    4.5324    5.4070 N   0  0  0  0  0  0  0  0  0  0  0  0
    0.1926    4.7573    4.1642 C   0  0  0  0  0  0  0  0  0  0  0  0
    1.3867    5.4407    4.0768 C   0  0  0  0  0  0  0  0  0  0  0  0
    2.0985    5.8836    5.1685 C   0  0  0  0  0  0  0  0  0  0  0  0
    2.1801    4.3645    9.5301 C   0  0  0  0  0  0  0  0  0  0  0  0
    3.1046    3.7104    8.9902 O   0  0  0  0  0  0  0  0  0  0  0  0
    1.5586    3.8935   10.7731 C   0  0  0  0  0  0  0  0  0  0  0  0
    1.7419    2.4800   11.0229 N   0  0  0  0  0  0  0  0  0  0  0  0
    0.7984    1.5597   10.4826 C   0  0  0  0  0  0  0  0  0  0  0  0
    0.8402    1.3740    9.1217 C   0  0  0  0  0  0  0  0  0  0  0  0
   -0.0270    0.5237    8.5513 N   0  0  0  0  0  0  0  0  0  0  0  0
   -0.9436   -0.1644    9.2438 C   0  0  0  0  0  0  0  0  0  0  0  0
   -1.0020    0.0065   10.6071 C   0  0  0  0  0  0  0  0  0  0  0  0
   -0.1214    0.8792   11.2418 C   0  0  0  0  0  0  0  0  0  0  0  0
   -1.7911   -1.0129    8.5765 O   0  0  0  0  0  0  0  0  0  0  0  0
   -2.1104   -1.0132    7.2276 C   0  0  0  0  0  0  0  0  0  0  0  0
    3.0378    1.8168   11.9232 S   0  0  0  0  0  6  0  0  0  0  0  0
    3.9979    2.9531   12.2031 O   0  0  0  0  0  0  0  0  0  0  0  0
    2.4767    1.3710   13.2520 O   0  0  0  0  0  0  0  0  0  0  0  0
    3.8330    0.4769   11.1787 C   0  0  0  0  0  0  0  0  0  0  0  0
    4.5609    0.7133   10.0096 C   0  0  0  0  0  0  0  0  0  0  0  0
    5.2216   -0.2918    9.3463 C   0  0  0  0  0  0  0  0  0  0  0  0
    5.1514   -1.5638    9.8678 C   0  0  0  0  0  0  0  0  0  0  0  0
    4.4362   -1.8060   11.0198 C   0  0  0  0  0  0  0  0  0  0  0  0
    3.7621   -0.7991   11.7021 C   0  0  0  0  0  0  0  0  0  0  0  0
    3.0027   -1.0811   12.9336 C   0  0  0  0  0  0  0  0  0  0  0  0
  1  2  1  0
  2  3  1  0
  3  4  1  0
  4  5  1  0
  5  6  2  0
  6  7  1  0
  7  8  2  0
  8  9  1  0
  9 10  2  0
  3 11  1  0
 11 12  2  0
 11 13  1  0
 13 14  1  0
 14 15  1  0
 15 16  2  0
 16 17  1  0
 17 18  2  0
 18 19  1  0
 19 20  2  0
 18 21  1  0
 21 22  1  0
 14 23  1  0
 23 24  2  0
 23 25  2  0
 23 26  1  0
 26 27  2  0
 27 28  1  0
 28 29  2  0
 29 30  1  0
 30 31  2  0
 31 32  1  0
 10  5  1  0
 20 15  1  0
 31 26  1  0
M  END
$$$$
