
     RDKit          3D

 32 34  0  0  0  0  0  0  0  0999 V2000
    2.2625    2.1445    6.6750 C   0  0  0  0  0  0  0  0  0  0  0  0
    2.3322    2.2351    8.1769 C   0  0  0  0  0  0  0  0  0  0  0  0
    1.9792    3.5800    8.6284 N   0  0  0  0  0  0  0  0  0  0  0  0
    2.3081    4.6614    7.7463 C   0  0  0  0  0  0  0  0  0  0  0  0
    1.2146    5.2095    6.9375 C   0  0  0  0  0  0  0  0  0  0  0  0
   -0.0673    4.6994    7.0407 C   0  0  0  0  0  0  0  0  0  0  0  0
   -1.0977    5.1926    6.3383 N   0  0  0  0  0  0  0  0  0  0  0  0
   -0.9655    6.2187    5.4815 C   0  0  0  0  0  0  0  0  0  0  0  0
    0.3035    6.7440    5.3623 C   0  0  0  0  0  0  0  0  0  0  0  0
    1.3952    6.2772    6.0588 C   0  0  0  0  0  0  0  0  0  0  0  0
    1.3106    3.6888    9.8698 C   0  0  0  0  0  0  0  0  0  0  0  0
    0.6640    4.7394   10.0987 O   0  0  0  0  0  0  0  0  0  0  0  0
    1.3644    2.6123   10.8655 C   0  0  0  0  0  0  0  0  0  0  0  0
    1.8118    1.3427   10.3347 N   0  0  0  0  0  0  0  0  0  0  0  0
    0.8828    0.5315    9.6217 C   0  0  0  0  0  0  0  0  0  0  0  0
    1.2376    0.1825    8.3408 C   0  0  0  0  0  0  0  0  0  0  0  0
    0.4020   -0.5760    7.6151 N   0  0  0  0  0  0  0  0  0  0  0  0
   -0.7749   -1.0189    8.0757 C   0  0  0  0  0  0  0  0  0  0  0  0
   -1.1488   -0.6814    9.3554 C   0  0  0  0  0  0  0  0  0  0  0  0
   -0.3128    0.1045   10.1449 C   0  0  0  0  0  0  0  0  0  0  0  0
   -1.5665   -1.7903    7.2622 O   0  0  0  0  0  0  0  0  0  0  0  0
   -1.2054   -2.4526    6.0993 C   0  0  0  0  0  0  0  0  0  0  0  0
    3.4050    0.7367   10.4894 S   0  0  0  0  0  6  0  0  0  0  0  0
    3.3775   -0.6899    9.9839 O   0  0  0  0  0  0  0  0  0  0  0  0
    4.2774    1.5269    9.5440 O   0  0  0  0  0  0  0  0  0  0  0  0
    4.0735    0.8390   12.0783 C   0  0  0  0  0  0  0  0  0  0  0  0
    4.8520    1.9563   12.3917 C   0  0  0  0  0  0  0  0  0  0  0  0
    5.4277    2.1204   13.6279 C   0  0  0  0  0  0  0  0  0  0  0  0
    5.2175    1.1414   14.5725 C   0  0  0  0  0  0  0  0  0  0  0  0
    4.4515    0.0366   14.2725 C   0  0  0  0  0  0  0  0  0  0  0  0
    3.8626   -0.1435   13.0256 C   0  0  0  0  0  0  0  0  0  0  0  0
    3.0465   -1.3339   12.7264 C   0  0  0  0  0  0  0  0  0  0  0  0
  1  2  1  0
  2  3  1  0
  3  4  1  0
  4  5  1  0
  5  6  2  0
  6  7  1  0
  7  8  2  0
  8  9  1  0
  9 10  2  0
  3 11  1  0
 11 12  2  0
 11 13  1  0
 13 14  1  0
 14 15  1  0
 15 16  2  0
 16 17  1  0
 17 18  2  0
 18 19  1  0
 19 20  2  0
 18 21  1  0
 21 22  1  0
 14 23  1  0
 23 24  2  0
 23 25  2  0
 23 26  1  0
 26 27  2  0
 27 28  1  0
 28 29  2  0
 29 30  1  0
 30 31  2  0
 31 32  1  0
 10  5  1  0
 20 15  1  0
 31 26  1  0
M  END
$$$$
