
     RDKit          3D

 32 34  0  0  0  0  0  0  0  0999 V2000
   -0.1589    3.8292    6.5331 C   0  0  0  0  0  0  0  0  0  0  0  0
    0.2999    3.4304    7.9112 C   0  0  0  0  0  0  0  0  0  0  0  0
    1.6675    3.8881    8.1510 N   0  0  0  0  0  0  0  0  0  0  0  0
    2.3017    4.6058    7.0840 C   0  0  0  0  0  0  0  0  0  0  0  0
    1.4404    5.4583    6.2584 C   0  0  0  0  0  0  0  0  0  0  0  0
    0.1064    5.6387    6.5781 C   0  0  0  0  0  0  0  0  0  0  0  0
   -0.7048    6.4319    5.8633 N   0  0  0  0  0  0  0  0  0  0  0  0
   -0.2860    7.1121    4.7833 C   0  0  0  0  0  0  0  0  0  0  0  0
    1.0405    6.9482    4.4455 C   0  0  0  0  0  0  0  0  0  0  0  0
    1.9163    6.1479    5.1436 C   0  0  0  0  0  0  0  0  0  0  0  0
    2.2237    3.6195    9.4231 C   0  0  0  0  0  0  0  0  0  0  0  0
    3.3794    4.0462    9.6609 O   0  0  0  0  0  0  0  0  0  0  0  0
    1.4809    2.8668   10.4403 C   0  0  0  0  0  0  0  0  0  0  0  0
    2.1657    1.6824   10.9117 N   0  0  0  0  0  0  0  0  0  0  0  0
    2.2240    0.5400   10.0627 C   0  0  0  0  0  0  0  0  0  0  0  0
    1.0179    0.0180    9.6612 C   0  0  0  0  0  0  0  0  0  0  0  0
    1.0059   -1.0619    8.8650 N   0  0  0  0  0  0  0  0  0  0  0  0
    2.1192   -1.6679    8.4330 C   0  0  0  0  0  0  0  0  0  0  0  0
    3.3368   -1.1612    8.8228 C   0  0  0  0  0  0  0  0  0  0  0  0
    3.3971   -0.0416    9.6491 C   0  0  0  0  0  0  0  0  0  0  0  0
    2.0118   -2.7687    7.6205 O   0  0  0  0  0  0  0  0  0  0  0  0
    0.8655   -3.2995    7.0499 C   0  0  0  0  0  0  0  0  0  0  0  0
    2.9371    1.5522   12.4341 S   0  0  0  0  0  6  0  0  0  0  0  0
    4.4121    1.3543   12.1575 O   0  0  0  0  0  0  0  0  0  0  0  0
    2.7892    2.8862   13.1254 O   0  0  0  0  0  0  0  0  0  0  0  0
    2.3094    0.3190   13.4670 C   0  0  0  0  0  0  0  0  0  0  0  0
    3.0336   -0.8704   13.5835 C   0  0  0  0  0  0  0  0  0  0  0  0
    2.6092   -1.9077   14.3777 C   0  0  0  0  0  0  0  0  0  0  0  0
    1.4312   -1.7485   15.0719 C   0  0  0  0  0  0  0  0  0  0  0  0
    0.7108   -0.5796   14.9631 C   0  0  0  0  0  0  0  0  0  0  0  0
    1.1275    0.4790   14.1631 C   0  0  0  0  0  0  0  0  0  0  0  0
    0.3404    1.7211   14.0617 C   0  0  0  0  0  0  0  0  0  0  0  0
  1  2  1  0
  2  3  1  0
  3  4  1  0
  4  5  1  0
  5  6  2  0
  6  7  1  0
  7  8  2  0
  8  9  1  0
  9 10  2  0
  3 11  1  0
 11 12  2  0
 11 13  1  0
 13 14  1  0
 14 15  1  0
 15 16  2  0
 16 17  1  0
 17 18  2  0
 18 19  1  0
 19 20  2  0
 18 21  1  0
 21 22  1  0
 14 23  1  0
 23 24  2  0
 23 25  2  0
 23 26  1  0
 26 27  2  0
 27 28  1  0
 28 29  2  0
 29 30  1  0
 30 31  2  0
 31 32  1  0
 10  5  1  0
 20 15  1  0
 31 26  1  0
M  END
$$$$
