
     RDKit          3D

 32 34  0  0  0  0  0  0  0  0999 V2000
    4.0106    6.7413    9.4674 C   0  0  0  0  0  0  0  0  0  0  0  0
    2.9499    5.8569   10.0687 C   0  0  0  0  0  0  0  0  0  0  0  0
    2.0942    5.2964    9.0243 N   0  0  0  0  0  0  0  0  0  0  0  0
    1.1636    6.1942    8.4049 C   0  0  0  0  0  0  0  0  0  0  0  0
    0.8581    5.9560    6.9906 C   0  0  0  0  0  0  0  0  0  0  0  0
    1.2754    4.7967    6.3612 C   0  0  0  0  0  0  0  0  0  0  0  0
    0.9915    4.5315    5.0777 N   0  0  0  0  0  0  0  0  0  0  0  0
    0.2809    5.3694    4.3048 C   0  0  0  0  0  0  0  0  0  0  0  0
   -0.1463    6.5315    4.9107 C   0  0  0  0  0  0  0  0  0  0  0  0
    0.1160    6.8532    6.2231 C   0  0  0  0  0  0  0  0  0  0  0  0
    2.2896    3.9358    8.6917 C   0  0  0  0  0  0  0  0  0  0  0  0
    1.5175    3.4207    7.8475 O   0  0  0  0  0  0  0  0  0  0  0  0
    3.3593    3.1428    9.3081 C   0  0  0  0  0  0  0  0  0  0  0  0
    2.8907    1.9614   10.0001 N   0  0  0  0  0  0  0  0  0  0  0  0
    2.0340    1.0565    9.3098 C   0  0  0  0  0  0  0  0  0  0  0  0
    2.6458   -0.0011    8.6811 C   0  0  0  0  0  0  0  0  0  0  0  0
    1.8934   -0.8857    8.0089 N   0  0  0  0  0  0  0  0  0  0  0  0
    0.5606   -0.7947    7.9156 C   0  0  0  0  0  0  0  0  0  0  0  0
   -0.0716    0.2561    8.5382 C   0  0  0  0  0  0  0  0  0  0  0  0
    0.6696    1.1984    9.2470 C   0  0  0  0  0  0  0  0  0  0  0  0
   -0.1289   -1.7460    7.2063 O   0  0  0  0  0  0  0  0  0  0  0  0
    0.3654   -2.9062    6.6310 C   0  0  0  0  0  0  0  0  0  0  0  0
    3.3065    1.5542   11.6097 S   0  0  0  0  0  6  0  0  0  0  0  0
    4.4853    0.6081   11.5272 O   0  0  0  0  0  0  0  0  0  0  0  0
    3.7953    2.8167   12.2779 O   0  0  0  0  0  0  0  0  0  0  0  0
    2.0192    0.8909   12.5503 C   0  0  0  0  0  0  0  0  0  0  0  0
    1.0420    1.7651   13.0335 C   0  0  0  0  0  0  0  0  0  0  0  0
   -0.0154    1.3284   13.7938 C   0  0  0  0  0  0  0  0  0  0  0  0
   -0.0953   -0.0166   14.0756 C   0  0  0  0  0  0  0  0  0  0  0  0
    0.8634   -0.8856   13.6034 C   0  0  0  0  0  0  0  0  0  0  0  0
    1.9395   -0.4585   12.8330 C   0  0  0  0  0  0  0  0  0  0  0  0
    2.9540   -1.4064   12.3381 C   0  0  0  0  0  0  0  0  0  0  0  0
  1  2  1  0
  2  3  1  0
  3  4  1  0
  4  5  1  0
  5  6  2  0
  6  7  1  0
  7  8  2  0
  8  9  1  0
  9 10  2  0
  3 11  1  0
 11 12  2  0
 11 13  1  0
 13 14  1  0
 14 15  1  0
 15 16  2  0
 16 17  1  0
 17 18  2  0
 18 19  1  0
 19 20  2  0
 18 21  1  0
 21 22  1  0
 14 23  1  0
 23 24  2  0
 23 25  2  0
 23 26  1  0
 26 27  2  0
 27 28  1  0
 28 29  2  0
 29 30  1  0
 30 31  2  0
 31 32  1  0
 10  5  1  0
 20 15  1  0
 31 26  1  0
M  END
$$$$
