
     RDKit          3D

 32 34  0  0  0  0  0  0  0  0999 V2000
    3.9297    4.2924    8.4000 C   0  0  0  0  0  0  0  0  0  0  0  0
    3.1438    3.3307    7.5477 C   0  0  0  0  0  0  0  0  0  0  0  0
    1.7142    3.4396    7.8332 N   0  0  0  0  0  0  0  0  0  0  0  0
    0.8252    3.3364    6.7131 C   0  0  0  0  0  0  0  0  0  0  0  0
    0.6424    4.5442    5.9018 C   0  0  0  0  0  0  0  0  0  0  0  0
    1.1746    5.7559    6.3055 C   0  0  0  0  0  0  0  0  0  0  0  0
    1.0519    6.8751    5.5770 N   0  0  0  0  0  0  0  0  0  0  0  0
    0.4040    6.9066    4.4007 C   0  0  0  0  0  0  0  0  0  0  0  0
   -0.1347    5.7103    3.9776 C   0  0  0  0  0  0  0  0  0  0  0  0
   -0.0379    4.5331    4.6846 C   0  0  0  0  0  0  0  0  0  0  0  0
    1.3369    3.5942    9.1874 C   0  0  0  0  0  0  0  0  0  0  0  0
    0.2158    4.1022    9.4305 O   0  0  0  0  0  0  0  0  0  0  0  0
    2.2212    3.1762   10.2812 C   0  0  0  0  0  0  0  0  0  0  0  0
    1.8143    1.9480   10.9291 N   0  0  0  0  0  0  0  0  0  0  0  0
    1.2212    0.9203   10.1408 C   0  0  0  0  0  0  0  0  0  0  0  0
   -0.1040    1.0887    9.8187 C   0  0  0  0  0  0  0  0  0  0  0  0
   -0.7217    0.1522    9.0827 N   0  0  0  0  0  0  0  0  0  0  0  0
   -0.1101   -0.9529    8.6374 C   0  0  0  0  0  0  0  0  0  0  0  0
    1.2163   -1.1405    8.9481 C   0  0  0  0  0  0  0  0  0  0  0  0
    1.8975   -0.1944    9.7101 C   0  0  0  0  0  0  0  0  0  0  0  0
   -0.8211   -1.8583    7.8902 O   0  0  0  0  0  0  0  0  0  0  0  0
   -2.1606   -2.1955    8.0060 C   0  0  0  0  0  0  0  0  0  0  0  0
    2.0077    1.6248   12.5988 S   0  0  0  0  0  6  0  0  0  0  0  0
    1.4888    2.8393   13.3386 O   0  0  0  0  0  0  0  0  0  0  0  0
    1.0939    0.4724   12.9396 O   0  0  0  0  0  0  0  0  0  0  0  0
    3.6153    1.2204   13.0823 C   0  0  0  0  0  0  0  0  0  0  0  0
    4.0016   -0.1209   13.0183 C   0  0  0  0  0  0  0  0  0  0  0  0
    5.2580   -0.5363   13.3869 C   0  0  0  0  0  0  0  0  0  0  0  0
    6.1482    0.4158   13.8294 C   0  0  0  0  0  0  0  0  0  0  0  0
    5.7761    1.7403   13.8957 C   0  0  0  0  0  0  0  0  0  0  0  0
    4.5080    2.1759   13.5264 C   0  0  0  0  0  0  0  0  0  0  0  0
    4.1314    3.5987   13.6055 C   0  0  0  0  0  0  0  0  0  0  0  0
  1  2  1  0
  2  3  1  0
  3  4  1  0
  4  5  1  0
  5  6  2  0
  6  7  1  0
  7  8  2  0
  8  9  1  0
  9 10  2  0
  3 11  1  0
 11 12  2  0
 11 13  1  0
 13 14  1  0
 14 15  1  0
 15 16  2  0
 16 17  1  0
 17 18  2  0
 18 19  1  0
 19 20  2  0
 18 21  1  0
 21 22  1  0
 14 23  1  0
 23 24  2  0
 23 25  2  0
 23 26  1  0
 26 27  2  0
 27 28  1  0
 28 29  2  0
 29 30  1  0
 30 31  2  0
 31 32  1  0
 10  5  1  0
 20 15  1  0
 31 26  1  0
M  END
$$$$
