
     RDKit          3D

 33 36  0  0  0  0  0  0  0  0999 V2000
    0.6704    4.8761   13.7757 C   0  0  0  0  0  0  0  0  0  0  0  0
    1.9626    4.3593   12.6602 S   0  0  0  0  0  6  0  0  0  0  0  0
    2.7936    5.5543   12.2652 O   0  0  0  0  0  0  0  0  0  0  0  0
    2.8505    3.4048   13.4066 O   0  0  0  0  0  0  0  0  0  0  0  0
    1.2928    3.6014   11.2339 C   0  0  0  0  0  0  0  0  0  0  0  0
    0.3426    4.2132   10.4420 C   0  0  0  0  0  0  0  0  0  0  0  0
   -0.1576    3.6089    9.3488 N   0  0  0  0  0  0  0  0  0  0  0  0
    0.2595    2.3632    8.9830 C   0  0  0  0  0  0  0  0  0  0  0  0
    1.2036    1.7093    9.7361 C   0  0  0  0  0  0  0  0  0  0  0  0
    1.7149    2.3270   10.8537 C   0  0  0  0  0  0  0  0  0  0  0  0
    1.6619    0.4218    9.3937 N   0  0  0  0  0  0  0  0  0  0  0  0
    1.5718   -0.6856   10.2877 C   0  0  0  0  0  0  0  0  0  0  0  0
    1.0400   -0.4003   11.4212 O   0  0  0  0  0  0  0  0  0  0  0  0
    1.9984   -2.0088   10.0192 N   0  0  0  0  0  0  0  0  0  0  0  0
    2.5685   -2.3162    8.7563 C   0  0  0  0  0  0  0  0  0  0  0  0
    2.7745   -1.4706    7.7125 C   0  0  0  0  0  0  0  0  0  0  0  0
    2.3475    0.2103    7.8372 S   0  0  0  0  0  6  0  0  0  0  0  0
    1.3913    0.5928    6.7477 O   0  0  0  0  0  0  0  0  0  0  0  0
    3.5591    1.1040    7.7534 O   0  0  0  0  0  0  0  0  0  0  0  0
    3.3237   -1.8926    6.5267 C   0  0  0  0  0  0  0  0  0  0  0  0
    3.6927   -3.1869    6.3336 C   0  0  0  0  0  0  0  0  0  0  0  0
    3.4763   -4.0483    7.4143 C   0  0  0  0  0  0  0  0  0  0  0  0
    2.9367   -3.5973    8.5574 N   0  0  0  0  0  0  0  0  0  0  0  0
    1.9001   -3.0135   11.0674 C   0  0  0  0  0  0  0  0  0  0  0  0
    1.0790   -4.1800   10.8296 C   0  0  0  0  0  0  0  0  0  0  0  0
   -0.2453   -4.3575   11.1073 C   0  0  0  0  0  0  0  0  0  0  0  0
   -0.9386   -5.5433   10.7928 C   0  0  0  0  0  0  0  0  0  0  0  0
   -0.3077   -6.5893   10.1844 C   0  0  0  0  0  0  0  0  0  0  0  0
    1.0208   -6.4422    9.8916 C   0  0  0  0  0  0  0  0  0  0  0  0
    1.6968   -5.2831   10.1988 C   0  0  0  0  0  0  0  0  0  0  0  0
    3.0074   -5.1814    9.8457 F   0  0  0  0  0  0  0  0  0  0  0  0
   -0.9529   -7.7496    9.8686 F   0  0  0  0  0  0  0  0  0  0  0  0
   -0.9375   -3.3683   11.6974 F   0  0  0  0  0  0  0  0  0  0  0  0
  1  2  1  0
  2  3  2  0
  2  4  2  0
  2  5  1  0
  5  6  2  0
  6  7  1  0
  7  8  2  0
  8  9  1  0
  9 10  2  0
  9 11  1  0
 11 12  1  0
 12 13  2  0
 12 14  1  0
 14 15  1  0
 15 16  2  0
 16 17  1  0
 17 18  2  0
 17 19  2  0
 16 20  1  0
 20 21  2  0
 21 22  1  0
 22 23  2  0
 14 24  1  0
 24 25  1  0
 25 26  2  0
 26 27  1  0
 27 28  2  0
 28 29  1  0
 29 30  2  0
 30 31  1  0
 28 32  1  0
 26 33  1  0
 10  5  1  0
 17 11  1  0
 23 15  1  0
 30 25  1  0
M  END
$$$$
