
     RDKit          3D

 33 36  0  0  0  0  0  0  0  0999 V2000
   -4.8103    0.0687   12.3778 C   0  0  0  0  0  0  0  0  0  0  0  0
   -4.3265   -1.2662   11.2984 S   0  0  0  0  0  6  0  0  0  0  0  0
   -5.4736   -2.2342   11.1504 O   0  0  0  0  0  0  0  0  0  0  0  0
   -4.0424   -0.6755    9.9467 O   0  0  0  0  0  0  0  0  0  0  0  0
   -2.9211   -2.0984   11.9225 C   0  0  0  0  0  0  0  0  0  0  0  0
   -2.9304   -2.7786   13.1230 C   0  0  0  0  0  0  0  0  0  0  0  0
   -1.8353   -3.4115   13.5820 N   0  0  0  0  0  0  0  0  0  0  0  0
   -0.6709   -3.4029   12.8724 C   0  0  0  0  0  0  0  0  0  0  0  0
   -0.6069   -2.7408   11.6708 C   0  0  0  0  0  0  0  0  0  0  0  0
   -1.7263   -2.0938   11.2017 C   0  0  0  0  0  0  0  0  0  0  0  0
    0.5760   -2.7071   10.9063 N   0  0  0  0  0  0  0  0  0  0  0  0
    1.1924   -1.4857   10.5035 C   0  0  0  0  0  0  0  0  0  0  0  0
    0.5732   -0.4326   10.8990 O   0  0  0  0  0  0  0  0  0  0  0  0
    2.3822   -1.3644    9.7453 N   0  0  0  0  0  0  0  0  0  0  0  0
    3.0675   -2.5355    9.3289 C   0  0  0  0  0  0  0  0  0  0  0  0
    2.7207   -3.8276    9.5684 C   0  0  0  0  0  0  0  0  0  0  0  0
    1.2768   -4.2061   10.4599 S   0  0  0  0  0  6  0  0  0  0  0  0
    1.6023   -5.0498   11.6556 O   0  0  0  0  0  0  0  0  0  0  0  0
    0.2695   -4.9391    9.6103 O   0  0  0  0  0  0  0  0  0  0  0  0
    3.4788   -4.8827    9.1236 C   0  0  0  0  0  0  0  0  0  0  0  0
    4.6233   -4.6888    8.4157 C   0  0  0  0  0  0  0  0  0  0  0  0
    4.9705   -3.3553    8.1749 C   0  0  0  0  0  0  0  0  0  0  0  0
    4.2029   -2.3513    8.6266 N   0  0  0  0  0  0  0  0  0  0  0  0
    2.8445   -0.0408    9.3557 C   0  0  0  0  0  0  0  0  0  0  0  0
    2.5782    0.4139    8.0089 C   0  0  0  0  0  0  0  0  0  0  0  0
    3.4544    0.5599    6.9729 C   0  0  0  0  0  0  0  0  0  0  0  0
    3.0554    0.9859    5.6904 C   0  0  0  0  0  0  0  0  0  0  0  0
    1.7504    1.2776    5.4180 C   0  0  0  0  0  0  0  0  0  0  0  0
    0.8464    1.1401    6.4359 C   0  0  0  0  0  0  0  0  0  0  0  0
    1.2374    0.7233    7.6883 C   0  0  0  0  0  0  0  0  0  0  0  0
    0.2854    0.5667    8.6483 F   0  0  0  0  0  0  0  0  0  0  0  0
    1.3350    1.6927    4.1862 F   0  0  0  0  0  0  0  0  0  0  0  0
    4.7558    0.2824    7.1609 F   0  0  0  0  0  0  0  0  0  0  0  0
  1  2  1  0
  2  3  2  0
  2  4  2  0
  2  5  1  0
  5  6  2  0
  6  7  1  0
  7  8  2  0
  8  9  1  0
  9 10  2  0
  9 11  1  0
 11 12  1  0
 12 13  2  0
 12 14  1  0
 14 15  1  0
 15 16  2  0
 16 17  1  0
 17 18  2  0
 17 19  2  0
 16 20  1  0
 20 21  2  0
 21 22  1  0
 22 23  2  0
 14 24  1  0
 24 25  1  0
 25 26  2  0
 26 27  1  0
 27 28  2  0
 28 29  1  0
 29 30  2  0
 30 31  1  0
 28 32  1  0
 26 33  1  0
 10  5  1  0
 17 11  1  0
 23 15  1  0
 30 25  1  0
M  END
$$$$
