
     RDKit          3D

 33 36  0  0  0  0  0  0  0  0999 V2000
   -1.6198    2.4262    7.9639 C   0  0  0  0  0  0  0  0  0  0  0  0
   -0.4681    2.6727    6.6245 S   0  0  0  0  0  6  0  0  0  0  0  0
   -1.2195    3.0917    5.3858 O   0  0  0  0  0  0  0  0  0  0  0  0
    0.4458    3.7995    7.0144 O   0  0  0  0  0  0  0  0  0  0  0  0
    0.4423    1.2145    6.3048 C   0  0  0  0  0  0  0  0  0  0  0  0
    0.6439    0.7269    5.0298 C   0  0  0  0  0  0  0  0  0  0  0  0
    1.3485   -0.3980    4.8096 N   0  0  0  0  0  0  0  0  0  0  0  0
    1.8915   -1.0998    5.8450 C   0  0  0  0  0  0  0  0  0  0  0  0
    1.7210   -0.6585    7.1344 C   0  0  0  0  0  0  0  0  0  0  0  0
    1.0007    0.4915    7.3594 C   0  0  0  0  0  0  0  0  0  0  0  0
    2.2650   -1.3533    8.2327 N   0  0  0  0  0  0  0  0  0  0  0  0
    1.5434   -1.5509    9.4468 C   0  0  0  0  0  0  0  0  0  0  0  0
    0.3651   -1.0405    9.4434 O   0  0  0  0  0  0  0  0  0  0  0  0
    2.0117   -2.2429   10.5900 N   0  0  0  0  0  0  0  0  0  0  0  0
    3.3091   -2.8181   10.5755 C   0  0  0  0  0  0  0  0  0  0  0  0
    4.2145   -2.7945    9.5623 C   0  0  0  0  0  0  0  0  0  0  0  0
    3.8549   -1.9731    8.0726 S   0  0  0  0  0  6  0  0  0  0  0  0
    3.9749   -2.9129    6.9108 O   0  0  0  0  0  0  0  0  0  0  0  0
    4.7745   -0.8003    7.8431 O   0  0  0  0  0  0  0  0  0  0  0  0
    5.4402   -3.4056    9.6622 C   0  0  0  0  0  0  0  0  0  0  0  0
    5.8148   -4.0704   10.7875 C   0  0  0  0  0  0  0  0  0  0  0  0
    4.8754   -4.0883   11.8240 C   0  0  0  0  0  0  0  0  0  0  0  0
    3.6874   -3.4789   11.6876 N   0  0  0  0  0  0  0  0  0  0  0  0
    1.1756   -2.2966   11.7799 C   0  0  0  0  0  0  0  0  0  0  0  0
   -0.0758   -3.0182   11.7114 C   0  0  0  0  0  0  0  0  0  0  0  0
   -1.3034   -2.6348   12.1677 C   0  0  0  0  0  0  0  0  0  0  0  0
   -2.4583   -3.4261   12.0076 C   0  0  0  0  0  0  0  0  0  0  0  0
   -2.4034   -4.6352   11.3770 C   0  0  0  0  0  0  0  0  0  0  0  0
   -1.1865   -5.0479   10.9067 C   0  0  0  0  0  0  0  0  0  0  0  0
   -0.0592   -4.2736   11.0633 C   0  0  0  0  0  0  0  0  0  0  0  0
    1.1145   -4.7199   10.5380 F   0  0  0  0  0  0  0  0  0  0  0  0
   -3.5047   -5.4232   11.2080 F   0  0  0  0  0  0  0  0  0  0  0  0
   -1.4395   -1.4520   12.7910 F   0  0  0  0  0  0  0  0  0  0  0  0
  1  2  1  0
  2  3  2  0
  2  4  2  0
  2  5  1  0
  5  6  2  0
  6  7  1  0
  7  8  2  0
  8  9  1  0
  9 10  2  0
  9 11  1  0
 11 12  1  0
 12 13  2  0
 12 14  1  0
 14 15  1  0
 15 16  2  0
 16 17  1  0
 17 18  2  0
 17 19  2  0
 16 20  1  0
 20 21  2  0
 21 22  1  0
 22 23  2  0
 14 24  1  0
 24 25  1  0
 25 26  2  0
 26 27  1  0
 27 28  2  0
 28 29  1  0
 29 30  2  0
 30 31  1  0
 28 32  1  0
 26 33  1  0
 10  5  1  0
 17 11  1  0
 23 15  1  0
 30 25  1  0
M  END
$$$$
