
     RDKit          3D

 33 36  0  0  0  0  0  0  0  0999 V2000
   -1.0234    4.1012   13.2136 C   0  0  0  0  0  0  0  0  0  0  0  0
   -0.6036    3.6049   11.5527 S   0  0  0  0  0  6  0  0  0  0  0  0
   -1.7638    2.8593   10.9422 O   0  0  0  0  0  0  0  0  0  0  0  0
   -0.3823    4.8544   10.7487 O   0  0  0  0  0  0  0  0  0  0  0  0
    0.8247    2.5963   11.5424 C   0  0  0  0  0  0  0  0  0  0  0  0
    1.7968    2.6719   12.5189 C   0  0  0  0  0  0  0  0  0  0  0  0
    2.8874    1.8846   12.4888 N   0  0  0  0  0  0  0  0  0  0  0  0
    3.0714    0.9788   11.4862 C   0  0  0  0  0  0  0  0  0  0  0  0
    2.1343    0.8625   10.4888 C   0  0  0  0  0  0  0  0  0  0  0  0
    1.0194    1.6674   10.5197 C   0  0  0  0  0  0  0  0  0  0  0  0
    2.2856   -0.0601    9.4349 N   0  0  0  0  0  0  0  0  0  0  0  0
    1.2769   -1.0107    9.0992 C   0  0  0  0  0  0  0  0  0  0  0  0
    0.2306   -0.9465    9.8410 O   0  0  0  0  0  0  0  0  0  0  0  0
    1.3455   -1.9627    8.0532 N   0  0  0  0  0  0  0  0  0  0  0  0
    2.4996   -2.0124    7.2286 C   0  0  0  0  0  0  0  0  0  0  0  0
    3.6092   -1.2318    7.3087 C   0  0  0  0  0  0  0  0  0  0  0  0
    3.7470   -0.0127    8.5408 S   0  0  0  0  0  6  0  0  0  0  0  0
    3.9831    1.3337    7.9252 O   0  0  0  0  0  0  0  0  0  0  0  0
    4.8718   -0.3100    9.5001 O   0  0  0  0  0  0  0  0  0  0  0  0
    4.6619   -1.3653    6.4371 C   0  0  0  0  0  0  0  0  0  0  0  0
    4.6493   -2.2916    5.4419 C   0  0  0  0  0  0  0  0  0  0  0  0
    3.5026   -3.0896    5.3688 C   0  0  0  0  0  0  0  0  0  0  0  0
    2.4943   -2.9281    6.2398 N   0  0  0  0  0  0  0  0  0  0  0  0
    0.2560   -2.9125    7.8844 C   0  0  0  0  0  0  0  0  0  0  0  0
    0.2081   -4.0683    8.7524 C   0  0  0  0  0  0  0  0  0  0  0  0
   -0.7121   -5.0757    8.7755 C   0  0  0  0  0  0  0  0  0  0  0  0
   -0.6239   -6.1697    9.6591 C   0  0  0  0  0  0  0  0  0  0  0  0
    0.4047   -6.2763   10.5497 C   0  0  0  0  0  0  0  0  0  0  0  0
    1.3451   -5.2824   10.5508 C   0  0  0  0  0  0  0  0  0  0  0  0
    1.2580   -4.2144    9.6866 C   0  0  0  0  0  0  0  0  0  0  0  0
    2.2460   -3.2784    9.7077 F   0  0  0  0  0  0  0  0  0  0  0  0
    0.5158   -7.3236   11.4175 F   0  0  0  0  0  0  0  0  0  0  0  0
   -1.7493   -5.0461    7.9213 F   0  0  0  0  0  0  0  0  0  0  0  0
  1  2  1  0
  2  3  2  0
  2  4  2  0
  2  5  1  0
  5  6  2  0
  6  7  1  0
  7  8  2  0
  8  9  1  0
  9 10  2  0
  9 11  1  0
 11 12  1  0
 12 13  2  0
 12 14  1  0
 14 15  1  0
 15 16  2  0
 16 17  1  0
 17 18  2  0
 17 19  2  0
 16 20  1  0
 20 21  2  0
 21 22  1  0
 22 23  2  0
 14 24  1  0
 24 25  1  0
 25 26  2  0
 26 27  1  0
 27 28  2  0
 28 29  1  0
 29 30  2  0
 30 31  1  0
 28 32  1  0
 26 33  1  0
 10  5  1  0
 17 11  1  0
 23 15  1  0
 30 25  1  0
M  END
$$$$
