
     RDKit          3D

 33 36  0  0  0  0  0  0  0  0999 V2000
   -3.2229   -5.5042   13.0755 C   0  0  0  0  0  0  0  0  0  0  0  0
   -3.2072   -3.8977   13.8501 S   0  0  0  0  0  6  0  0  0  0  0  0
   -4.3866   -3.0933   13.3636 O   0  0  0  0  0  0  0  0  0  0  0  0
   -3.3680   -4.1063   15.3291 O   0  0  0  0  0  0  0  0  0  0  0  0
   -1.7202   -3.0475   13.4990 C   0  0  0  0  0  0  0  0  0  0  0  0
   -0.7011   -2.9179   14.4203 C   0  0  0  0  0  0  0  0  0  0  0  0
    0.4342   -2.2585   14.1259 N   0  0  0  0  0  0  0  0  0  0  0  0
    0.6186   -1.6918   12.8994 C   0  0  0  0  0  0  0  0  0  0  0  0
   -0.3643   -1.7911   11.9452 C   0  0  0  0  0  0  0  0  0  0  0  0
   -1.5248   -2.4652   12.2462 C   0  0  0  0  0  0  0  0  0  0  0  0
   -0.2144   -1.2203   10.6659 N   0  0  0  0  0  0  0  0  0  0  0  0
    0.4483   -1.8961    9.5992 C   0  0  0  0  0  0  0  0  0  0  0  0
    0.8906   -3.0601    9.9127 O   0  0  0  0  0  0  0  0  0  0  0  0
    0.6327   -1.3989    8.2862 N   0  0  0  0  0  0  0  0  0  0  0  0
    0.1239   -0.1183    7.9463 C   0  0  0  0  0  0  0  0  0  0  0  0
   -0.5512    0.7449    8.7501 C   0  0  0  0  0  0  0  0  0  0  0  0
   -0.8644    0.3453   10.4131 S   0  0  0  0  0  6  0  0  0  0  0  0
   -2.3354    0.3933   10.6981 O   0  0  0  0  0  0  0  0  0  0  0  0
   -0.1576    1.2843   11.3578 O   0  0  0  0  0  0  0  0  0  0  0  0
   -1.0105    1.9577    8.2986 C   0  0  0  0  0  0  0  0  0  0  0  0
   -0.8126    2.3611    7.0154 C   0  0  0  0  0  0  0  0  0  0  0  0
   -0.1167    1.4652    6.1970 C   0  0  0  0  0  0  0  0  0  0  0  0
    0.3163    0.2885    6.6760 N   0  0  0  0  0  0  0  0  0  0  0  0
    1.3952   -2.1864    7.3289 C   0  0  0  0  0  0  0  0  0  0  0  0
    2.7687   -1.8154    7.0694 C   0  0  0  0  0  0  0  0  0  0  0  0
    3.8951   -2.2133    7.7290 C   0  0  0  0  0  0  0  0  0  0  0  0
    5.1875   -1.7983    7.3509 C   0  0  0  0  0  0  0  0  0  0  0  0
    5.3780   -0.9640    6.2879 C   0  0  0  0  0  0  0  0  0  0  0  0
    4.2680   -0.5477    5.6045 C   0  0  0  0  0  0  0  0  0  0  0  0
    3.0060   -0.9543    5.9746 C   0  0  0  0  0  0  0  0  0  0  0  0
    1.9445   -0.5389    5.2308 F   0  0  0  0  0  0  0  0  0  0  0  0
    6.6172   -0.5451    5.8990 F   0  0  0  0  0  0  0  0  0  0  0  0
    3.7895   -3.0430    8.7809 F   0  0  0  0  0  0  0  0  0  0  0  0
  1  2  1  0
  2  3  2  0
  2  4  2  0
  2  5  1  0
  5  6  2  0
  6  7  1  0
  7  8  2  0
  8  9  1  0
  9 10  2  0
  9 11  1  0
 11 12  1  0
 12 13  2  0
 12 14  1  0
 14 15  1  0
 15 16  2  0
 16 17  1  0
 17 18  2  0
 17 19  2  0
 16 20  1  0
 20 21  2  0
 21 22  1  0
 22 23  2  0
 14 24  1  0
 24 25  1  0
 25 26  2  0
 26 27  1  0
 27 28  2  0
 28 29  1  0
 29 30  2  0
 30 31  1  0
 28 32  1  0
 26 33  1  0
 10  5  1  0
 17 11  1  0
 23 15  1  0
 30 25  1  0
M  END
$$$$
