
     RDKit          3D

 33 36  0  0  0  0  0  0  0  0999 V2000
   -4.0883   -4.0405   12.0367 C   0  0  0  0  0  0  0  0  0  0  0  0
   -4.2244   -2.4081   11.3312 S   0  0  0  0  0  6  0  0  0  0  0  0
   -4.5446   -2.5204    9.8617 O   0  0  0  0  0  0  0  0  0  0  0  0
   -5.3768   -1.7183   12.0042 O   0  0  0  0  0  0  0  0  0  0  0  0
   -2.7433   -1.5051   11.5512 C   0  0  0  0  0  0  0  0  0  0  0  0
   -2.7159   -0.2447   12.1124 C   0  0  0  0  0  0  0  0  0  0  0  0
   -1.5628    0.4302   12.2711 N   0  0  0  0  0  0  0  0  0  0  0  0
   -0.3736   -0.1110   11.8806 C   0  0  0  0  0  0  0  0  0  0  0  0
   -0.3442   -1.3628   11.3162 C   0  0  0  0  0  0  0  0  0  0  0  0
   -1.5230   -2.0526   11.1540 C   0  0  0  0  0  0  0  0  0  0  0  0
    0.8624   -1.9585   10.8990 N   0  0  0  0  0  0  0  0  0  0  0  0
    1.1739   -2.1746    9.5242 C   0  0  0  0  0  0  0  0  0  0  0  0
    0.2602   -1.7797    8.7129 O   0  0  0  0  0  0  0  0  0  0  0  0
    2.3633   -2.7560    9.0218 N   0  0  0  0  0  0  0  0  0  0  0  0
    3.3738   -3.1725    9.9273 C   0  0  0  0  0  0  0  0  0  0  0  0
    3.3569   -3.0877   11.2836 C   0  0  0  0  0  0  0  0  0  0  0  0
    1.9775   -2.4293   12.1124 S   0  0  0  0  0  6  0  0  0  0  0  0
    2.3846   -1.2742   12.9770 O   0  0  0  0  0  0  0  0  0  0  0  0
    1.2959   -3.4621   12.9742 O   0  0  0  0  0  0  0  0  0  0  0  0
    4.4095   -3.5130   12.0562 C   0  0  0  0  0  0  0  0  0  0  0  0
    5.5310   -4.0448   11.5011 C   0  0  0  0  0  0  0  0  0  0  0  0
    5.5376   -4.1274   10.1047 C   0  0  0  0  0  0  0  0  0  0  0  0
    4.4885   -3.7006    9.3844 N   0  0  0  0  0  0  0  0  0  0  0  0
    2.4987   -2.9711    7.5889 C   0  0  0  0  0  0  0  0  0  0  0  0
    2.9130   -1.8602    6.7608 C   0  0  0  0  0  0  0  0  0  0  0  0
    2.1849   -0.7741    6.3702 C   0  0  0  0  0  0  0  0  0  0  0  0
    2.7234    0.2620    5.5815 C   0  0  0  0  0  0  0  0  0  0  0  0
    4.0220    0.2285    5.1635 C   0  0  0  0  0  0  0  0  0  0  0  0
    4.7794   -0.8472    5.5397 C   0  0  0  0  0  0  0  0  0  0  0  0
    4.2523   -1.8585    6.3107 C   0  0  0  0  0  0  0  0  0  0  0  0
    5.0670   -2.8820    6.6865 F   0  0  0  0  0  0  0  0  0  0  0  0
    4.5705    1.2168    4.3988 F   0  0  0  0  0  0  0  0  0  0  0  0
    0.9006   -0.6651    6.7506 F   0  0  0  0  0  0  0  0  0  0  0  0
  1  2  1  0
  2  3  2  0
  2  4  2  0
  2  5  1  0
  5  6  2  0
  6  7  1  0
  7  8  2  0
  8  9  1  0
  9 10  2  0
  9 11  1  0
 11 12  1  0
 12 13  2  0
 12 14  1  0
 14 15  1  0
 15 16  2  0
 16 17  1  0
 17 18  2  0
 17 19  2  0
 16 20  1  0
 20 21  2  0
 21 22  1  0
 22 23  2  0
 14 24  1  0
 24 25  1  0
 25 26  2  0
 26 27  1  0
 27 28  2  0
 28 29  1  0
 29 30  2  0
 30 31  1  0
 28 32  1  0
 26 33  1  0
 10  5  1  0
 17 11  1  0
 23 15  1  0
 30 25  1  0
M  END
$$$$
