
     RDKit          3D

 33 36  0  0  0  0  0  0  0  0999 V2000
    7.7647   -2.8406   14.5011 C   0  0  0  0  0  0  0  0  0  0  0  0
    6.0011   -2.6520   14.3134 S   0  0  0  0  0  6  0  0  0  0  0  0
    5.2977   -3.3300   15.4624 O   0  0  0  0  0  0  0  0  0  0  0  0
    5.6925   -1.1834   14.3839 O   0  0  0  0  0  0  0  0  0  0  0  0
    5.4564   -3.3309   12.7969 C   0  0  0  0  0  0  0  0  0  0  0  0
    5.7134   -4.6362   12.4302 C   0  0  0  0  0  0  0  0  0  0  0  0
    5.2833   -5.1355   11.2572 N   0  0  0  0  0  0  0  0  0  0  0  0
    4.5740   -4.3645   10.3843 C   0  0  0  0  0  0  0  0  0  0  0  0
    4.2904   -3.0582   10.6999 C   0  0  0  0  0  0  0  0  0  0  0  0
    4.7302   -2.5478   11.8990 C   0  0  0  0  0  0  0  0  0  0  0  0
    3.5607   -2.2274    9.8269 N   0  0  0  0  0  0  0  0  0  0  0  0
    2.4270   -1.4756   10.2549 C   0  0  0  0  0  0  0  0  0  0  0  0
    2.1380   -1.6271   11.4969 O   0  0  0  0  0  0  0  0  0  0  0  0
    1.6470   -0.6131    9.4469 N   0  0  0  0  0  0  0  0  0  0  0  0
    1.9867   -0.4399    8.0798 C   0  0  0  0  0  0  0  0  0  0  0  0
    3.0116   -1.0195    7.4010 C   0  0  0  0  0  0  0  0  0  0  0  0
    4.0802   -2.1371    8.1961 S   0  0  0  0  0  6  0  0  0  0  0  0
    5.5020   -1.6747    8.0864 O   0  0  0  0  0  0  0  0  0  0  0  0
    3.9760   -3.5237    7.6127 O   0  0  0  0  0  0  0  0  0  0  0  0
    3.2500   -0.7587    6.0740 C   0  0  0  0  0  0  0  0  0  0  0  0
    2.4682    0.0985    5.3651 C   0  0  0  0  0  0  0  0  0  0  0  0
    1.4165    0.6892    6.0735 C   0  0  0  0  0  0  0  0  0  0  0  0
    1.2162    0.4084    7.3706 N   0  0  0  0  0  0  0  0  0  0  0  0
    0.4746    0.0305   10.0206 C   0  0  0  0  0  0  0  0  0  0  0  0
   -0.8015   -0.1501    9.3646 C   0  0  0  0  0  0  0  0  0  0  0  0
   -1.5052    0.7465    8.6142 C   0  0  0  0  0  0  0  0  0  0  0  0
   -2.7329    0.4298    7.9994 C   0  0  0  0  0  0  0  0  0  0  0  0
   -3.2866   -0.8109    8.1270 C   0  0  0  0  0  0  0  0  0  0  0  0
   -2.6046   -1.7336    8.8727 C   0  0  0  0  0  0  0  0  0  0  0  0
   -1.4050   -1.4231    9.4723 C   0  0  0  0  0  0  0  0  0  0  0  0
   -0.7544   -2.3956   10.1675 F   0  0  0  0  0  0  0  0  0  0  0  0
   -4.4740   -1.1461    7.5439 F   0  0  0  0  0  0  0  0  0  0  0  0
   -1.0196    1.9867    8.4346 F   0  0  0  0  0  0  0  0  0  0  0  0
  1  2  1  0
  2  3  2  0
  2  4  2  0
  2  5  1  0
  5  6  2  0
  6  7  1  0
  7  8  2  0
  8  9  1  0
  9 10  2  0
  9 11  1  0
 11 12  1  0
 12 13  2  0
 12 14  1  0
 14 15  1  0
 15 16  2  0
 16 17  1  0
 17 18  2  0
 17 19  2  0
 16 20  1  0
 20 21  2  0
 21 22  1  0
 22 23  2  0
 14 24  1  0
 24 25  1  0
 25 26  2  0
 26 27  1  0
 27 28  2  0
 28 29  1  0
 29 30  2  0
 30 31  1  0
 28 32  1  0
 26 33  1  0
 10  5  1  0
 17 11  1  0
 23 15  1  0
 30 25  1  0
M  END
$$$$
