
     RDKit          3D

 33 36  0  0  0  0  0  0  0  0999 V2000
   -2.5596    2.1351    7.5201 C   0  0  0  0  0  0  0  0  0  0  0  0
   -3.5290    1.7806    8.9747 S   0  0  0  0  0  6  0  0  0  0  0  0
   -4.1955    3.0453    9.4553 O   0  0  0  0  0  0  0  0  0  0  0  0
   -4.6065    0.8126    8.5762 O   0  0  0  0  0  0  0  0  0  0  0  0
   -2.5305    1.1130   10.2454 C   0  0  0  0  0  0  0  0  0  0  0  0
   -2.6613    1.4843   11.5680 C   0  0  0  0  0  0  0  0  0  0  0  0
   -1.8806    0.9558   12.5279 N   0  0  0  0  0  0  0  0  0  0  0  0
   -0.9270    0.0290   12.2256 C   0  0  0  0  0  0  0  0  0  0  0  0
   -0.7548   -0.3760   10.9246 C   0  0  0  0  0  0  0  0  0  0  0  0
   -1.5529    0.1644    9.9433 C   0  0  0  0  0  0  0  0  0  0  0  0
    0.2184   -1.3306   10.5691 N   0  0  0  0  0  0  0  0  0  0  0  0
    1.5362   -0.9658   10.1641 C   0  0  0  0  0  0  0  0  0  0  0  0
    1.7481    0.3007   10.1539 O   0  0  0  0  0  0  0  0  0  0  0  0
    2.5727   -1.8597    9.8010 N   0  0  0  0  0  0  0  0  0  0  0  0
    2.3322   -3.2581    9.8331 C   0  0  0  0  0  0  0  0  0  0  0  0
    1.1822   -3.8931   10.1814 C   0  0  0  0  0  0  0  0  0  0  0  0
   -0.2282   -2.9839   10.6368 S   0  0  0  0  0  6  0  0  0  0  0  0
   -0.6924   -3.3826   12.0054 O   0  0  0  0  0  0  0  0  0  0  0  0
   -1.3625   -3.1843    9.6637 O   0  0  0  0  0  0  0  0  0  0  0  0
    1.0761   -5.2622   10.1888 C   0  0  0  0  0  0  0  0  0  0  0  0
    2.1227   -6.0594    9.8456 C   0  0  0  0  0  0  0  0  0  0  0  0
    3.3011   -5.3954    9.4888 C   0  0  0  0  0  0  0  0  0  0  0  0
    3.3650   -4.0547    9.4942 N   0  0  0  0  0  0  0  0  0  0  0  0
    3.8453   -1.3232    9.3424 C   0  0  0  0  0  0  0  0  0  0  0  0
    4.1624   -1.4086    7.9339 C   0  0  0  0  0  0  0  0  0  0  0  0
    5.2741   -1.9361    7.3440 C   0  0  0  0  0  0  0  0  0  0  0  0
    5.4457   -1.9853    5.9463 C   0  0  0  0  0  0  0  0  0  0  0  0
    4.4911   -1.4996    5.1006 C   0  0  0  0  0  0  0  0  0  0  0  0
    3.3632   -0.9648    5.6612 C   0  0  0  0  0  0  0  0  0  0  0  0
    3.1966   -0.9178    7.0269 C   0  0  0  0  0  0  0  0  0  0  0  0
    2.0351   -0.4107    7.5234 F   0  0  0  0  0  0  0  0  0  0  0  0
    4.6300   -1.5332    3.7435 F   0  0  0  0  0  0  0  0  0  0  0  0
    6.2544   -2.4431    8.1109 F   0  0  0  0  0  0  0  0  0  0  0  0
  1  2  1  0
  2  3  2  0
  2  4  2  0
  2  5  1  0
  5  6  2  0
  6  7  1  0
  7  8  2  0
  8  9  1  0
  9 10  2  0
  9 11  1  0
 11 12  1  0
 12 13  2  0
 12 14  1  0
 14 15  1  0
 15 16  2  0
 16 17  1  0
 17 18  2  0
 17 19  2  0
 16 20  1  0
 20 21  2  0
 21 22  1  0
 22 23  2  0
 14 24  1  0
 24 25  1  0
 25 26  2  0
 26 27  1  0
 27 28  2  0
 28 29  1  0
 29 30  2  0
 30 31  1  0
 28 32  1  0
 26 33  1  0
 10  5  1  0
 17 11  1  0
 23 15  1  0
 30 25  1  0
M  END
$$$$
