
     RDKit          3D

 33 36  0  0  0  0  0  0  0  0999 V2000
    0.6890   -0.0239    3.1424 C   0  0  0  0  0  0  0  0  0  0  0  0
    2.0552   -0.2959    4.2562 S   0  0  0  0  0  6  0  0  0  0  0  0
    2.5118   -1.7295    4.1515 O   0  0  0  0  0  0  0  0  0  0  0  0
    3.1873    0.5840    3.8080 O   0  0  0  0  0  0  0  0  0  0  0  0
    1.6004    0.0659    5.9054 C   0  0  0  0  0  0  0  0  0  0  0  0
    1.0887    1.2897    6.2854 C   0  0  0  0  0  0  0  0  0  0  0  0
    0.7460    1.5438    7.5615 N   0  0  0  0  0  0  0  0  0  0  0  0
    0.8933    0.5950    8.5298 C   0  0  0  0  0  0  0  0  0  0  0  0
    1.3981   -0.6405    8.2057 C   0  0  0  0  0  0  0  0  0  0  0  0
    1.7484   -0.9002    6.9012 C   0  0  0  0  0  0  0  0  0  0  0  0
    1.5665   -1.6489    9.1751 N   0  0  0  0  0  0  0  0  0  0  0  0
    0.5515   -2.6073    9.4666 C   0  0  0  0  0  0  0  0  0  0  0  0
   -0.5177   -2.4646    8.7700 O   0  0  0  0  0  0  0  0  0  0  0  0
    0.6435   -3.6544   10.4154 N   0  0  0  0  0  0  0  0  0  0  0  0
    1.8370   -3.8132   11.1669 C   0  0  0  0  0  0  0  0  0  0  0  0
    2.9648   -3.0578   11.0999 C   0  0  0  0  0  0  0  0  0  0  0  0
    3.0580   -1.7001   10.0178 S   0  0  0  0  0  6  0  0  0  0  0  0
    4.2227   -1.8488    9.0856 O   0  0  0  0  0  0  0  0  0  0  0  0
    3.1988   -0.3973   10.7639 O   0  0  0  0  0  0  0  0  0  0  0  0
    4.0690   -3.3220   11.8724 C   0  0  0  0  0  0  0  0  0  0  0  0
    4.0920   -4.3598   12.7505 C   0  0  0  0  0  0  0  0  0  0  0  0
    2.9261   -5.1304   12.8114 C   0  0  0  0  0  0  0  0  0  0  0  0
    1.8673   -4.8399   12.0395 N   0  0  0  0  0  0  0  0  0  0  0  0
   -0.5119   -4.5090   10.6446 C   0  0  0  0  0  0  0  0  0  0  0  0
   -1.6118   -3.9869   11.4251 C   0  0  0  0  0  0  0  0  0  0  0  0
   -2.4674   -2.9706   11.1134 C   0  0  0  0  0  0  0  0  0  0  0  0
   -3.5261   -2.5787   11.9566 C   0  0  0  0  0  0  0  0  0  0  0  0
   -3.7507   -3.2083   13.1464 C   0  0  0  0  0  0  0  0  0  0  0  0
   -2.9104   -4.2329   13.4876 C   0  0  0  0  0  0  0  0  0  0  0  0
   -1.8768   -4.6151   12.6627 C   0  0  0  0  0  0  0  0  0  0  0  0
   -1.1001   -5.6678   13.0382 F   0  0  0  0  0  0  0  0  0  0  0  0
   -4.7673   -2.8503   13.9834 F   0  0  0  0  0  0  0  0  0  0  0  0
   -2.3162   -2.3086    9.9536 F   0  0  0  0  0  0  0  0  0  0  0  0
  1  2  1  0
  2  3  2  0
  2  4  2  0
  2  5  1  0
  5  6  2  0
  6  7  1  0
  7  8  2  0
  8  9  1  0
  9 10  2  0
  9 11  1  0
 11 12  1  0
 12 13  2  0
 12 14  1  0
 14 15  1  0
 15 16  2  0
 16 17  1  0
 17 18  2  0
 17 19  2  0
 16 20  1  0
 20 21  2  0
 21 22  1  0
 22 23  2  0
 14 24  1  0
 24 25  1  0
 25 26  2  0
 26 27  1  0
 27 28  2  0
 28 29  1  0
 29 30  2  0
 30 31  1  0
 28 32  1  0
 26 33  1  0
 10  5  1  0
 17 11  1  0
 23 15  1  0
 30 25  1  0
M  END
$$$$
