
     RDKit          3D

 33 36  0  0  0  0  0  0  0  0999 V2000
    4.3560   -4.0428    5.1681 C   0  0  0  0  0  0  0  0  0  0  0  0
    3.8295   -2.5395    5.9706 S   0  0  0  0  0  6  0  0  0  0  0  0
    4.7752   -1.4205    5.6125 O   0  0  0  0  0  0  0  0  0  0  0  0
    2.4724   -2.1889    5.4303 O   0  0  0  0  0  0  0  0  0  0  0  0
    3.7757   -2.7419    7.7065 C   0  0  0  0  0  0  0  0  0  0  0  0
    4.7459   -3.4295    8.4066 C   0  0  0  0  0  0  0  0  0  0  0  0
    4.6820   -3.5715    9.7430 N   0  0  0  0  0  0  0  0  0  0  0  0
    3.6499   -3.0377   10.4568 C   0  0  0  0  0  0  0  0  0  0  0  0
    2.6573   -2.3436    9.8094 C   0  0  0  0  0  0  0  0  0  0  0  0
    2.7227   -2.1984    8.4432 C   0  0  0  0  0  0  0  0  0  0  0  0
    1.5737   -1.7763   10.5086 N   0  0  0  0  0  0  0  0  0  0  0  0
    0.5638   -2.5695   11.1290 C   0  0  0  0  0  0  0  0  0  0  0  0
    0.7343   -3.8346   10.9905 O   0  0  0  0  0  0  0  0  0  0  0  0
   -0.5488   -2.0807   11.8558 N   0  0  0  0  0  0  0  0  0  0  0  0
   -0.7172   -0.6807   12.0174 C   0  0  0  0  0  0  0  0  0  0  0  0
    0.0839    0.3101   11.5444 C   0  0  0  0  0  0  0  0  0  0  0  0
    1.4944   -0.0667   10.6002 S   0  0  0  0  0  6  0  0  0  0  0  0
    2.7222    0.5174   11.2316 O   0  0  0  0  0  0  0  0  0  0  0  0
    1.3807    0.4551    9.1900 O   0  0  0  0  0  0  0  0  0  0  0  0
   -0.1767    1.6373   11.7817 C   0  0  0  0  0  0  0  0  0  0  0  0
   -1.2568    2.0323   12.5068 C   0  0  0  0  0  0  0  0  0  0  0  0
   -2.0744    1.0045   12.9886 C   0  0  0  0  0  0  0  0  0  0  0  0
   -1.7857   -0.2815   12.7351 N   0  0  0  0  0  0  0  0  0  0  0  0
   -1.5313   -3.0232   12.3698 C   0  0  0  0  0  0  0  0  0  0  0  0
   -2.8936   -2.9276   11.8938 C   0  0  0  0  0  0  0  0  0  0  0  0
   -3.3368   -2.5706   10.6535 C   0  0  0  0  0  0  0  0  0  0  0  0
   -4.7029   -2.5483   10.3086 C   0  0  0  0  0  0  0  0  0  0  0  0
   -5.6650   -2.8891   11.2144 C   0  0  0  0  0  0  0  0  0  0  0  0
   -5.2527   -3.2532   12.4673 C   0  0  0  0  0  0  0  0  0  0  0  0
   -3.9178   -3.2750   12.8028 C   0  0  0  0  0  0  0  0  0  0  0  0
   -3.5679   -3.6851   14.0526 F   0  0  0  0  0  0  0  0  0  0  0  0
   -6.9950   -2.8763   10.9092 F   0  0  0  0  0  0  0  0  0  0  0  0
   -2.4484   -2.2308    9.7041 F   0  0  0  0  0  0  0  0  0  0  0  0
  1  2  1  0
  2  3  2  0
  2  4  2  0
  2  5  1  0
  5  6  2  0
  6  7  1  0
  7  8  2  0
  8  9  1  0
  9 10  2  0
  9 11  1  0
 11 12  1  0
 12 13  2  0
 12 14  1  0
 14 15  1  0
 15 16  2  0
 16 17  1  0
 17 18  2  0
 17 19  2  0
 16 20  1  0
 20 21  2  0
 21 22  1  0
 22 23  2  0
 14 24  1  0
 24 25  1  0
 25 26  2  0
 26 27  1  0
 27 28  2  0
 28 29  1  0
 29 30  2  0
 30 31  1  0
 28 32  1  0
 26 33  1  0
 10  5  1  0
 17 11  1  0
 23 15  1  0
 30 25  1  0
M  END
$$$$
