
     RDKit          3D

 33 36  0  0  0  0  0  0  0  0999 V2000
    5.4714   -4.5522    5.8982 C   0  0  0  0  0  0  0  0  0  0  0  0
    4.3238   -3.1961    6.0567 S   0  0  0  0  0  6  0  0  0  0  0  0
    4.8606   -1.9944    5.3203 O   0  0  0  0  0  0  0  0  0  0  0  0
    3.0402   -3.6091    5.3943 O   0  0  0  0  0  0  0  0  0  0  0  0
    4.0565   -2.7948    7.7374 C   0  0  0  0  0  0  0  0  0  0  0  0
    4.9980   -3.0306    8.7183 C   0  0  0  0  0  0  0  0  0  0  0  0
    4.7685   -2.7127   10.0053 N   0  0  0  0  0  0  0  0  0  0  0  0
    3.5902   -2.1427   10.3879 C   0  0  0  0  0  0  0  0  0  0  0  0
    2.6185   -1.8864    9.4516 C   0  0  0  0  0  0  0  0  0  0  0  0
    2.8533   -2.2115    8.1359 C   0  0  0  0  0  0  0  0  0  0  0  0
    1.3874   -1.2990    9.8041 N   0  0  0  0  0  0  0  0  0  0  0  0
    0.6163   -1.7474   10.9168 C   0  0  0  0  0  0  0  0  0  0  0  0
    1.1447   -2.7262   11.5584 O   0  0  0  0  0  0  0  0  0  0  0  0
   -0.6216   -1.2079   11.3430 N   0  0  0  0  0  0  0  0  0  0  0  0
   -1.1872   -0.1145   10.6366 C   0  0  0  0  0  0  0  0  0  0  0  0
   -0.6789    0.5203    9.5477 C   0  0  0  0  0  0  0  0  0  0  0  0
    0.8226    0.0014    8.8411 S   0  0  0  0  0  6  0  0  0  0  0  0
    1.8039    1.1340    8.7990 O   0  0  0  0  0  0  0  0  0  0  0  0
    0.6309   -0.5250    7.4411 O   0  0  0  0  0  0  0  0  0  0  0  0
   -1.3157    1.5844    8.9579 C   0  0  0  0  0  0  0  0  0  0  0  0
   -2.4959    2.0617    9.4355 C   0  0  0  0  0  0  0  0  0  0  0  0
   -3.0099    1.4009   10.5562 C   0  0  0  0  0  0  0  0  0  0  0  0
   -2.3571    0.3641   11.1041 N   0  0  0  0  0  0  0  0  0  0  0  0
   -1.3192   -1.8265   12.4603 C   0  0  0  0  0  0  0  0  0  0  0  0
   -2.6592   -2.3263   12.2452 C   0  0  0  0  0  0  0  0  0  0  0  0
   -3.1042   -3.1716   11.2708 C   0  0  0  0  0  0  0  0  0  0  0  0
   -4.4413   -3.6092   11.1924 C   0  0  0  0  0  0  0  0  0  0  0  0
   -5.3717   -3.2015   12.1038 C   0  0  0  0  0  0  0  0  0  0  0  0
   -4.9566   -2.3541   13.0947 C   0  0  0  0  0  0  0  0  0  0  0  0
   -3.6499   -1.9278   13.1704 C   0  0  0  0  0  0  0  0  0  0  0  0
   -3.2889   -1.1174   14.2027 F   0  0  0  0  0  0  0  0  0  0  0  0
   -6.6734   -3.6081   12.0527 F   0  0  0  0  0  0  0  0  0  0  0  0
   -2.2445   -3.6242   10.3422 F   0  0  0  0  0  0  0  0  0  0  0  0
  1  2  1  0
  2  3  2  0
  2  4  2  0
  2  5  1  0
  5  6  2  0
  6  7  1  0
  7  8  2  0
  8  9  1  0
  9 10  2  0
  9 11  1  0
 11 12  1  0
 12 13  2  0
 12 14  1  0
 14 15  1  0
 15 16  2  0
 16 17  1  0
 17 18  2  0
 17 19  2  0
 16 20  1  0
 20 21  2  0
 21 22  1  0
 22 23  2  0
 14 24  1  0
 24 25  1  0
 25 26  2  0
 26 27  1  0
 27 28  2  0
 28 29  1  0
 29 30  2  0
 30 31  1  0
 28 32  1  0
 26 33  1  0
 10  5  1  0
 17 11  1  0
 23 15  1  0
 30 25  1  0
M  END
$$$$
