
     RDKit          3D

 33 36  0  0  0  0  0  0  0  0999 V2000
    2.7191    2.5060    6.3207 C   0  0  0  0  0  0  0  0  0  0  0  0
    1.3838    1.3260    6.3959 S   0  0  0  0  0  6  0  0  0  0  0  0
    0.3027    1.8476    7.3090 O   0  0  0  0  0  0  0  0  0  0  0  0
    0.8053    1.2078    5.0146 O   0  0  0  0  0  0  0  0  0  0  0  0
    1.9506   -0.2257    6.9689 C   0  0  0  0  0  0  0  0  0  0  0  0
    2.7935   -1.0300    6.2295 C   0  0  0  0  0  0  0  0  0  0  0  0
    3.2160   -2.2206    6.6925 N   0  0  0  0  0  0  0  0  0  0  0  0
    2.8235   -2.6768    7.9162 C   0  0  0  0  0  0  0  0  0  0  0  0
    1.9848   -1.9158    8.6933 C   0  0  0  0  0  0  0  0  0  0  0  0
    1.5530   -0.6987    8.2198 C   0  0  0  0  0  0  0  0  0  0  0  0
    1.5553   -2.3497    9.9630 N   0  0  0  0  0  0  0  0  0  0  0  0
    0.3649   -1.8600   10.5768 C   0  0  0  0  0  0  0  0  0  0  0  0
   -0.2699   -0.9957    9.8704 O   0  0  0  0  0  0  0  0  0  0  0  0
   -0.1405   -2.2494   11.8410 N   0  0  0  0  0  0  0  0  0  0  0  0
    0.5605   -3.2186   12.6050 C   0  0  0  0  0  0  0  0  0  0  0  0
    1.7129   -3.8587   12.2746 C   0  0  0  0  0  0  0  0  0  0  0  0
    2.5203   -3.5106   10.7746 S   0  0  0  0  0  6  0  0  0  0  0  0
    2.6903   -4.7612    9.9655 O   0  0  0  0  0  0  0  0  0  0  0  0
    3.8768   -2.8913   10.9987 O   0  0  0  0  0  0  0  0  0  0  0  0
    2.2906   -4.7954   13.0959 C   0  0  0  0  0  0  0  0  0  0  0  0
    1.7364   -5.1338   14.2905 C   0  0  0  0  0  0  0  0  0  0  0  0
    0.5507   -4.4689   14.6205 C   0  0  0  0  0  0  0  0  0  0  0  0
    0.0171   -3.5591   13.7904 N   0  0  0  0  0  0  0  0  0  0  0  0
   -1.3363   -1.6014   12.3584 C   0  0  0  0  0  0  0  0  0  0  0  0
   -2.6237   -2.1859   12.0543 C   0  0  0  0  0  0  0  0  0  0  0  0
   -3.3118   -3.1351   12.7527 C   0  0  0  0  0  0  0  0  0  0  0  0
   -4.5832   -3.5991   12.3604 C   0  0  0  0  0  0  0  0  0  0  0  0
   -5.1984   -3.1123   11.2438 C   0  0  0  0  0  0  0  0  0  0  0  0
   -4.5346   -2.1580   10.5219 C   0  0  0  0  0  0  0  0  0  0  0  0
   -3.2928   -1.7052   10.9065 C   0  0  0  0  0  0  0  0  0  0  0  0
   -2.7009   -0.7255   10.1700 F   0  0  0  0  0  0  0  0  0  0  0  0
   -6.4285   -3.5429   10.8392 F   0  0  0  0  0  0  0  0  0  0  0  0
   -2.7752   -3.6558   13.8694 F   0  0  0  0  0  0  0  0  0  0  0  0
  1  2  1  0
  2  3  2  0
  2  4  2  0
  2  5  1  0
  5  6  2  0
  6  7  1  0
  7  8  2  0
  8  9  1  0
  9 10  2  0
  9 11  1  0
 11 12  1  0
 12 13  2  0
 12 14  1  0
 14 15  1  0
 15 16  2  0
 16 17  1  0
 17 18  2  0
 17 19  2  0
 16 20  1  0
 20 21  2  0
 21 22  1  0
 22 23  2  0
 14 24  1  0
 24 25  1  0
 25 26  2  0
 26 27  1  0
 27 28  2  0
 28 29  1  0
 29 30  2  0
 30 31  1  0
 28 32  1  0
 26 33  1  0
 10  5  1  0
 17 11  1  0
 23 15  1  0
 30 25  1  0
M  END
$$$$
