
     RDKit          3D

 33 36  0  0  0  0  0  0  0  0999 V2000
   -0.6000    0.2585    4.3876 C   0  0  0  0  0  0  0  0  0  0  0  0
   -0.2848    0.7239    6.0803 S   0  0  0  0  0  6  0  0  0  0  0  0
    0.1421    2.1694    6.1333 O   0  0  0  0  0  0  0  0  0  0  0  0
   -1.5781    0.5956    6.8338 O   0  0  0  0  0  0  0  0  0  0  0  0
    0.9519   -0.2892    6.7886 C   0  0  0  0  0  0  0  0  0  0  0  0
    2.0154   -0.7843    6.0620 C   0  0  0  0  0  0  0  0  0  0  0  0
    2.9547   -1.5623    6.6302 N   0  0  0  0  0  0  0  0  0  0  0  0
    2.8882   -1.8907    7.9520 C   0  0  0  0  0  0  0  0  0  0  0  0
    1.8503   -1.4244    8.7213 C   0  0  0  0  0  0  0  0  0  0  0  0
    0.8901   -0.6292    8.1404 C   0  0  0  0  0  0  0  0  0  0  0  0
    1.7437   -1.7398   10.0903 N   0  0  0  0  0  0  0  0  0  0  0  0
    0.6853   -2.5415   10.6108 C   0  0  0  0  0  0  0  0  0  0  0  0
   -0.1514   -2.9429    9.7232 O   0  0  0  0  0  0  0  0  0  0  0  0
    0.5108   -2.9114   11.9665 N   0  0  0  0  0  0  0  0  0  0  0  0
    1.4519   -2.4765   12.9358 C   0  0  0  0  0  0  0  0  0  0  0  0
    2.5567   -1.7114   12.7330 C   0  0  0  0  0  0  0  0  0  0  0  0
    2.9466   -1.1232   11.1439 S   0  0  0  0  0  6  0  0  0  0  0  0
    4.3220   -1.5640   10.7421 O   0  0  0  0  0  0  0  0  0  0  0  0
    2.8804    0.3816   11.0715 O   0  0  0  0  0  0  0  0  0  0  0  0
    3.4059   -1.3672   13.7558 C   0  0  0  0  0  0  0  0  0  0  0  0
    3.1844   -1.7763   15.0333 C   0  0  0  0  0  0  0  0  0  0  0  0
    2.0447   -2.5631   15.2307 C   0  0  0  0  0  0  0  0  0  0  0  0
    1.2390   -2.8782   14.2045 N   0  0  0  0  0  0  0  0  0  0  0  0
   -0.6652   -3.6791   12.3477 C   0  0  0  0  0  0  0  0  0  0  0  0
   -1.9462   -3.0085   12.3785 C   0  0  0  0  0  0  0  0  0  0  0  0
   -2.3281   -1.9410   13.1380 C   0  0  0  0  0  0  0  0  0  0  0  0
   -3.6082   -1.3592   13.0475 C   0  0  0  0  0  0  0  0  0  0  0  0
   -4.5439   -1.8437   12.1802 C   0  0  0  0  0  0  0  0  0  0  0  0
   -4.1913   -2.9135   11.4032 C   0  0  0  0  0  0  0  0  0  0  0  0
   -2.9402   -3.4807   11.4923 C   0  0  0  0  0  0  0  0  0  0  0  0
   -2.6354   -4.5170   10.6642 F   0  0  0  0  0  0  0  0  0  0  0  0
   -5.7913   -1.3013   12.0712 F   0  0  0  0  0  0  0  0  0  0  0  0
   -1.4582   -1.4018   14.0090 F   0  0  0  0  0  0  0  0  0  0  0  0
  1  2  1  0
  2  3  2  0
  2  4  2  0
  2  5  1  0
  5  6  2  0
  6  7  1  0
  7  8  2  0
  8  9  1  0
  9 10  2  0
  9 11  1  0
 11 12  1  0
 12 13  2  0
 12 14  1  0
 14 15  1  0
 15 16  2  0
 16 17  1  0
 17 18  2  0
 17 19  2  0
 16 20  1  0
 20 21  2  0
 21 22  1  0
 22 23  2  0
 14 24  1  0
 24 25  1  0
 25 26  2  0
 26 27  1  0
 27 28  2  0
 28 29  1  0
 29 30  2  0
 30 31  1  0
 28 32  1  0
 26 33  1  0
 10  5  1  0
 17 11  1  0
 23 15  1  0
 30 25  1  0
M  END
$$$$
