
     RDKit          3D

 33 36  0  0  0  0  0  0  0  0999 V2000
   -2.1873    1.0162    8.5838 C   0  0  0  0  0  0  0  0  0  0  0  0
   -3.1870    0.3188    9.8858 S   0  0  0  0  0  6  0  0  0  0  0  0
   -3.4650    1.3744   10.9265 O   0  0  0  0  0  0  0  0  0  0  0  0
   -4.4994   -0.0900    9.2797 O   0  0  0  0  0  0  0  0  0  0  0  0
   -2.3883   -1.0503   10.6240 C   0  0  0  0  0  0  0  0  0  0  0  0
   -3.0122   -1.8707   11.5415 C   0  0  0  0  0  0  0  0  0  0  0  0
   -2.3759   -2.9187   12.0957 N   0  0  0  0  0  0  0  0  0  0  0  0
   -1.0842   -3.2084   11.7682 C   0  0  0  0  0  0  0  0  0  0  0  0
   -0.4163   -2.4239   10.8601 C   0  0  0  0  0  0  0  0  0  0  0  0
   -1.0669   -1.3526   10.2936 C   0  0  0  0  0  0  0  0  0  0  0  0
    0.9183   -2.6880   10.4939 N   0  0  0  0  0  0  0  0  0  0  0  0
    1.7436   -1.7156    9.8559 C   0  0  0  0  0  0  0  0  0  0  0  0
    1.1608   -0.5902    9.6491 O   0  0  0  0  0  0  0  0  0  0  0  0
    3.0925   -1.8964    9.4650 N   0  0  0  0  0  0  0  0  0  0  0  0
    3.7316   -3.1388    9.7149 C   0  0  0  0  0  0  0  0  0  0  0  0
    3.1993   -4.2396   10.3081 C   0  0  0  0  0  0  0  0  0  0  0  0
    1.5447   -4.2448   10.8423 S   0  0  0  0  0  6  0  0  0  0  0  0
    1.4645   -4.5660   12.3045 O   0  0  0  0  0  0  0  0  0  0  0  0
    0.7130   -5.2458   10.0808 O   0  0  0  0  0  0  0  0  0  0  0  0
    3.9279   -5.3860   10.5102 C   0  0  0  0  0  0  0  0  0  0  0  0
    5.2284   -5.4804   10.1248 C   0  0  0  0  0  0  0  0  0  0  0  0
    5.7659   -4.3418    9.5153 C   0  0  0  0  0  0  0  0  0  0  0  0
    5.0209   -3.2400    9.3356 N   0  0  0  0  0  0  0  0  0  0  0  0
    3.7773   -0.8242    8.7586 C   0  0  0  0  0  0  0  0  0  0  0  0
    3.9010   -0.9147    7.3205 C   0  0  0  0  0  0  0  0  0  0  0  0
    4.8726   -0.3925    6.5170 C   0  0  0  0  0  0  0  0  0  0  0  0
    4.8920   -0.5828    5.1210 C   0  0  0  0  0  0  0  0  0  0  0  0
    3.9231   -1.3117    4.4946 C   0  0  0  0  0  0  0  0  0  0  0  0
    2.9347   -1.8499    5.2730 C   0  0  0  0  0  0  0  0  0  0  0  0
    2.9172   -1.6637    6.6368 C   0  0  0  0  0  0  0  0  0  0  0  0
    1.9305   -2.2581    7.3618 F   0  0  0  0  0  0  0  0  0  0  0  0
    3.9156   -1.5121    3.1448 F   0  0  0  0  0  0  0  0  0  0  0  0
    5.8666    0.3294    7.0618 F   0  0  0  0  0  0  0  0  0  0  0  0
  1  2  1  0
  2  3  2  0
  2  4  2  0
  2  5  1  0
  5  6  2  0
  6  7  1  0
  7  8  2  0
  8  9  1  0
  9 10  2  0
  9 11  1  0
 11 12  1  0
 12 13  2  0
 12 14  1  0
 14 15  1  0
 15 16  2  0
 16 17  1  0
 17 18  2  0
 17 19  2  0
 16 20  1  0
 20 21  2  0
 21 22  1  0
 22 23  2  0
 14 24  1  0
 24 25  1  0
 25 26  2  0
 26 27  1  0
 27 28  2  0
 28 29  1  0
 29 30  2  0
 30 31  1  0
 28 32  1  0
 26 33  1  0
 10  5  1  0
 17 11  1  0
 23 15  1  0
 30 25  1  0
M  END
$$$$
