
     RDKit          3D

 33 36  0  0  0  0  0  0  0  0999 V2000
   -3.1915   -4.2344   14.4231 C   0  0  0  0  0  0  0  0  0  0  0  0
   -2.1917   -2.9512   13.6917 S   0  0  0  0  0  6  0  0  0  0  0  0
   -3.0426   -2.1156   12.7684 O   0  0  0  0  0  0  0  0  0  0  0  0
   -1.7079   -2.0646   14.8037 O   0  0  0  0  0  0  0  0  0  0  0  0
   -0.8457   -3.6329   12.8080 C   0  0  0  0  0  0  0  0  0  0  0  0
   -0.4049   -4.9259   13.0032 C   0  0  0  0  0  0  0  0  0  0  0  0
    0.6336   -5.4276   12.3103 N   0  0  0  0  0  0  0  0  0  0  0  0
    1.2909   -4.6714   11.3854 C   0  0  0  0  0  0  0  0  0  0  0  0
    0.8931   -3.3777   11.1518 C   0  0  0  0  0  0  0  0  0  0  0  0
   -0.1686   -2.8648   11.8602 C   0  0  0  0  0  0  0  0  0  0  0  0
    1.5445   -2.5623   10.2054 N   0  0  0  0  0  0  0  0  0  0  0  0
    1.1606   -1.2097    9.9674 C   0  0  0  0  0  0  0  0  0  0  0  0
    0.1760   -0.8111   10.6889 O   0  0  0  0  0  0  0  0  0  0  0  0
    1.7664   -0.3227    9.0446 N   0  0  0  0  0  0  0  0  0  0  0  0
    2.8655   -0.7690    8.2653 C   0  0  0  0  0  0  0  0  0  0  0  0
    3.4480   -1.9968    8.2814 C   0  0  0  0  0  0  0  0  0  0  0  0
    2.8435   -3.2500    9.3240 S   0  0  0  0  0  6  0  0  0  0  0  0
    3.9292   -3.7524   10.2276 O   0  0  0  0  0  0  0  0  0  0  0  0
    2.2900   -4.4130    8.5398 O   0  0  0  0  0  0  0  0  0  0  0  0
    4.5241   -2.3062    7.4863 C   0  0  0  0  0  0  0  0  0  0  0  0
    5.0666   -1.3946    6.6359 C   0  0  0  0  0  0  0  0  0  0  0  0
    4.4592   -0.1345    6.6274 C   0  0  0  0  0  0  0  0  0  0  0  0
    3.4086    0.1291    7.4199 N   0  0  0  0  0  0  0  0  0  0  0  0
    1.2094    1.0103    8.8699 C   0  0  0  0  0  0  0  0  0  0  0  0
   -0.1485    1.1324    8.3874 C   0  0  0  0  0  0  0  0  0  0  0  0
   -1.2742    1.4505    9.0900 C   0  0  0  0  0  0  0  0  0  0  0  0
   -2.5423    1.5681    8.4870 C   0  0  0  0  0  0  0  0  0  0  0  0
   -2.7082    1.3663    7.1476 C   0  0  0  0  0  0  0  0  0  0  0  0
   -1.5979    1.0469    6.4144 C   0  0  0  0  0  0  0  0  0  0  0  0
   -0.3595    0.9328    7.0047 C   0  0  0  0  0  0  0  0  0  0  0  0
    0.7137    0.6526    6.2158 F   0  0  0  0  0  0  0  0  0  0  0  0
   -3.9237    1.4727    6.5364 F   0  0  0  0  0  0  0  0  0  0  0  0
   -1.1896    1.6734   10.4126 F   0  0  0  0  0  0  0  0  0  0  0  0
  1  2  1  0
  2  3  2  0
  2  4  2  0
  2  5  1  0
  5  6  2  0
  6  7  1  0
  7  8  2  0
  8  9  1  0
  9 10  2  0
  9 11  1  0
 11 12  1  0
 12 13  2  0
 12 14  1  0
 14 15  1  0
 15 16  2  0
 16 17  1  0
 17 18  2  0
 17 19  2  0
 16 20  1  0
 20 21  2  0
 21 22  1  0
 22 23  2  0
 14 24  1  0
 24 25  1  0
 25 26  2  0
 26 27  1  0
 27 28  2  0
 28 29  1  0
 29 30  2  0
 30 31  1  0
 28 32  1  0
 26 33  1  0
 10  5  1  0
 17 11  1  0
 23 15  1  0
 30 25  1  0
M  END
$$$$
