
     RDKit          3D

 33 36  0  0  0  0  0  0  0  0999 V2000
   -0.3468   -4.5587   14.8188 C   0  0  0  0  0  0  0  0  0  0  0  0
    1.1602   -4.9892   13.9676 S   0  0  0  0  0  6  0  0  0  0  0  0
    2.0567   -5.7698   14.8959 O   0  0  0  0  0  0  0  0  0  0  0  0
    0.7919   -5.8847   12.8189 O   0  0  0  0  0  0  0  0  0  0  0  0
    1.9902   -3.5584   13.4007 C   0  0  0  0  0  0  0  0  0  0  0  0
    2.6747   -2.7101   14.2469 C   0  0  0  0  0  0  0  0  0  0  0  0
    3.3057   -1.6147   13.7862 N   0  0  0  0  0  0  0  0  0  0  0  0
    3.2908   -1.3026   12.4589 C   0  0  0  0  0  0  0  0  0  0  0  0
    2.6242   -2.1132   11.5730 C   0  0  0  0  0  0  0  0  0  0  0  0
    1.9791   -3.2330   12.0440 C   0  0  0  0  0  0  0  0  0  0  0  0
    2.5839   -1.8273   10.1940 N   0  0  0  0  0  0  0  0  0  0  0  0
    1.3614   -1.7497    9.4639 C   0  0  0  0  0  0  0  0  0  0  0  0
    0.3136   -1.9634   10.1748 O   0  0  0  0  0  0  0  0  0  0  0  0
    1.2331   -1.4594    8.0839 N   0  0  0  0  0  0  0  0  0  0  0  0
    2.3972   -1.2074    7.3120 C   0  0  0  0  0  0  0  0  0  0  0  0
    3.6885   -1.2075    7.7361 C   0  0  0  0  0  0  0  0  0  0  0  0
    4.0763   -1.5670    9.3925 S   0  0  0  0  0  6  0  0  0  0  0  0
    4.8531   -0.4419   10.0074 O   0  0  0  0  0  0  0  0  0  0  0  0
    4.8817   -2.8357    9.5169 O   0  0  0  0  0  0  0  0  0  0  0  0
    4.7356   -0.9311    6.8918 C   0  0  0  0  0  0  0  0  0  0  0  0
    4.5342   -0.6410    5.5788 C   0  0  0  0  0  0  0  0  0  0  0  0
    3.2017   -0.6438    5.1532 C   0  0  0  0  0  0  0  0  0  0  0  0
    2.2056   -0.9191    6.0096 N   0  0  0  0  0  0  0  0  0  0  0  0
   -0.0868   -1.4864    7.4718 C   0  0  0  0  0  0  0  0  0  0  0  0
   -0.9003   -0.2922    7.5336 C   0  0  0  0  0  0  0  0  0  0  0  0
   -2.2255   -0.1511    7.2403 C   0  0  0  0  0  0  0  0  0  0  0  0
   -2.9105    1.0730    7.3742 C   0  0  0  0  0  0  0  0  0  0  0  0
   -2.2700    2.1958    7.8118 C   0  0  0  0  0  0  0  0  0  0  0  0
   -0.9402    2.0870    8.1155 C   0  0  0  0  0  0  0  0  0  0  0  0
   -0.2724    0.8904    7.9847 C   0  0  0  0  0  0  0  0  0  0  0  0
    1.0401    0.8357    8.3411 F   0  0  0  0  0  0  0  0  0  0  0  0
   -2.9070    3.3946    7.9506 F   0  0  0  0  0  0  0  0  0  0  0  0
   -2.9269   -1.2146    6.8125 F   0  0  0  0  0  0  0  0  0  0  0  0
  1  2  1  0
  2  3  2  0
  2  4  2  0
  2  5  1  0
  5  6  2  0
  6  7  1  0
  7  8  2  0
  8  9  1  0
  9 10  2  0
  9 11  1  0
 11 12  1  0
 12 13  2  0
 12 14  1  0
 14 15  1  0
 15 16  2  0
 16 17  1  0
 17 18  2  0
 17 19  2  0
 16 20  1  0
 20 21  2  0
 21 22  1  0
 22 23  2  0
 14 24  1  0
 24 25  1  0
 25 26  2  0
 26 27  1  0
 27 28  2  0
 28 29  1  0
 29 30  2  0
 30 31  1  0
 28 32  1  0
 26 33  1  0
 10  5  1  0
 17 11  1  0
 23 15  1  0
 30 25  1  0
M  END
$$$$
