
     RDKit          3D

 33 36  0  0  0  0  0  0  0  0999 V2000
   -3.1889   -2.4306   12.8271 C   0  0  0  0  0  0  0  0  0  0  0  0
   -2.7627   -3.9286   11.9579 S   0  0  0  0  0  6  0  0  0  0  0  0
   -3.3178   -5.1171   12.7022 O   0  0  0  0  0  0  0  0  0  0  0  0
   -3.4262   -3.8752   10.6111 O   0  0  0  0  0  0  0  0  0  0  0  0
   -1.0291   -4.0853   11.7925 C   0  0  0  0  0  0  0  0  0  0  0  0
   -0.2785   -4.9282   12.5864 C   0  0  0  0  0  0  0  0  0  0  0  0
    1.0550   -5.0312   12.4397 N   0  0  0  0  0  0  0  0  0  0  0  0
    1.7154   -4.3019   11.4954 C   0  0  0  0  0  0  0  0  0  0  0  0
    1.0162   -3.4475   10.6784 C   0  0  0  0  0  0  0  0  0  0  0  0
   -0.3470   -3.3422   10.8286 C   0  0  0  0  0  0  0  0  0  0  0  0
    1.6593   -2.6759    9.6905 N   0  0  0  0  0  0  0  0  0  0  0  0
    1.5581   -1.2542    9.6436 C   0  0  0  0  0  0  0  0  0  0  0  0
    0.8330   -0.7508   10.5762 O   0  0  0  0  0  0  0  0  0  0  0  0
    2.1780   -0.4066    8.6936 N   0  0  0  0  0  0  0  0  0  0  0  0
    2.9916   -0.9731    7.6780 C   0  0  0  0  0  0  0  0  0  0  0  0
    3.2725   -2.2878    7.4786 C   0  0  0  0  0  0  0  0  0  0  0  0
    2.5914   -3.5058    8.5158 S   0  0  0  0  0  6  0  0  0  0  0  0
    3.6756   -4.3304    9.1420 O   0  0  0  0  0  0  0  0  0  0  0  0
    1.6582   -4.4227    7.7659 O   0  0  0  0  0  0  0  0  0  0  0  0
    4.0925   -2.7147    6.4632 C   0  0  0  0  0  0  0  0  0  0  0  0
    4.6701   -1.8389    5.5984 C   0  0  0  0  0  0  0  0  0  0  0  0
    4.3742   -0.4886    5.8128 C   0  0  0  0  0  0  0  0  0  0  0  0
    3.5676   -0.1111    6.8169 N   0  0  0  0  0  0  0  0  0  0  0  0
    1.9177    1.0243    8.7415 C   0  0  0  0  0  0  0  0  0  0  0  0
    0.5789    1.4916    8.4569 C   0  0  0  0  0  0  0  0  0  0  0  0
   -0.3887    1.8833    9.3359 C   0  0  0  0  0  0  0  0  0  0  0  0
   -1.6516    2.3513    8.9216 C   0  0  0  0  0  0  0  0  0  0  0  0
   -1.9730    2.4371    7.5981 C   0  0  0  0  0  0  0  0  0  0  0  0
   -1.0234    2.0526    6.6910 C   0  0  0  0  0  0  0  0  0  0  0  0
    0.2102    1.5961    7.0970 C   0  0  0  0  0  0  0  0  0  0  0  0
    1.1270    1.2669    6.1464 F   0  0  0  0  0  0  0  0  0  0  0  0
   -3.1878    2.8856    7.1675 F   0  0  0  0  0  0  0  0  0  0  0  0
   -0.1434    1.8366   10.6563 F   0  0  0  0  0  0  0  0  0  0  0  0
  1  2  1  0
  2  3  2  0
  2  4  2  0
  2  5  1  0
  5  6  2  0
  6  7  1  0
  7  8  2  0
  8  9  1  0
  9 10  2  0
  9 11  1  0
 11 12  1  0
 12 13  2  0
 12 14  1  0
 14 15  1  0
 15 16  2  0
 16 17  1  0
 17 18  2  0
 17 19  2  0
 16 20  1  0
 20 21  2  0
 21 22  1  0
 22 23  2  0
 14 24  1  0
 24 25  1  0
 25 26  2  0
 26 27  1  0
 27 28  2  0
 28 29  1  0
 29 30  2  0
 30 31  1  0
 28 32  1  0
 26 33  1  0
 10  5  1  0
 17 11  1  0
 23 15  1  0
 30 25  1  0
M  END
$$$$
