
     RDKit          3D

 33 36  0  0  0  0  0  0  0  0999 V2000
   -3.1716   -0.3061   12.9350 C   0  0  0  0  0  0  0  0  0  0  0  0
   -3.5805   -1.8491   12.1393 S   0  0  0  0  0  6  0  0  0  0  0  0
   -4.6009   -2.5877   12.9687 O   0  0  0  0  0  0  0  0  0  0  0  0
   -4.2095   -1.5230   10.8146 O   0  0  0  0  0  0  0  0  0  0  0  0
   -2.1560   -2.8403   11.9253 C   0  0  0  0  0  0  0  0  0  0  0  0
   -2.0472   -4.1113   12.4515 C   0  0  0  0  0  0  0  0  0  0  0  0
   -0.9400   -4.8547   12.2729 N   0  0  0  0  0  0  0  0  0  0  0  0
    0.1198   -4.3751   11.5613 C   0  0  0  0  0  0  0  0  0  0  0  0
    0.0640   -3.1159   11.0157 C   0  0  0  0  0  0  0  0  0  0  0  0
   -1.0679   -2.3560   11.1984 C   0  0  0  0  0  0  0  0  0  0  0  0
    1.1362   -2.5823   10.2739 N   0  0  0  0  0  0  0  0  0  0  0  0
    1.1779   -1.2175    9.8624 C   0  0  0  0  0  0  0  0  0  0  0  0
    0.1567   -0.5300   10.2278 O   0  0  0  0  0  0  0  0  0  0  0  0
    2.2186   -0.6018    9.1256 N   0  0  0  0  0  0  0  0  0  0  0  0
    3.3507   -1.3674    8.7426 C   0  0  0  0  0  0  0  0  0  0  0  0
    3.5869   -2.6813    8.9973 C   0  0  0  0  0  0  0  0  0  0  0  0
    2.4240   -3.6375    9.8670 S   0  0  0  0  0  6  0  0  0  0  0  0
    3.0505   -4.2509   11.0830 O   0  0  0  0  0  0  0  0  0  0  0  0
    1.8508   -4.7384    9.0106 O   0  0  0  0  0  0  0  0  0  0  0  0
    4.7356   -3.3112    8.5855 C   0  0  0  0  0  0  0  0  0  0  0  0
    5.7030   -2.6491    7.8968 C   0  0  0  0  0  0  0  0  0  0  0  0
    5.4495   -1.2975    7.6400 C   0  0  0  0  0  0  0  0  0  0  0  0
    4.3140   -0.7179    8.0595 N   0  0  0  0  0  0  0  0  0  0  0  0
    2.0769    0.7893    8.7224 C   0  0  0  0  0  0  0  0  0  0  0  0
    0.9803    1.1461    7.8497 C   0  0  0  0  0  0  0  0  0  0  0  0
   -0.1924    1.7663    8.1693 C   0  0  0  0  0  0  0  0  0  0  0  0
   -1.1723    2.0872    7.2090 C   0  0  0  0  0  0  0  0  0  0  0  0
   -0.9920    1.7881    5.8897 C   0  0  0  0  0  0  0  0  0  0  0  0
    0.1747    1.1667    5.5364 C   0  0  0  0  0  0  0  0  0  0  0  0
    1.1315    0.8542    6.4756 C   0  0  0  0  0  0  0  0  0  0  0  0
    2.2887    0.2729    6.0566 F   0  0  0  0  0  0  0  0  0  0  0  0
   -1.9233    2.0861    4.9378 F   0  0  0  0  0  0  0  0  0  0  0  0
   -0.4385    2.1015    9.4473 F   0  0  0  0  0  0  0  0  0  0  0  0
  1  2  1  0
  2  3  2  0
  2  4  2  0
  2  5  1  0
  5  6  2  0
  6  7  1  0
  7  8  2  0
  8  9  1  0
  9 10  2  0
  9 11  1  0
 11 12  1  0
 12 13  2  0
 12 14  1  0
 14 15  1  0
 15 16  2  0
 16 17  1  0
 17 18  2  0
 17 19  2  0
 16 20  1  0
 20 21  2  0
 21 22  1  0
 22 23  2  0
 14 24  1  0
 24 25  1  0
 25 26  2  0
 26 27  1  0
 27 28  2  0
 28 29  1  0
 29 30  2  0
 30 31  1  0
 28 32  1  0
 26 33  1  0
 10  5  1  0
 17 11  1  0
 23 15  1  0
 30 25  1  0
M  END
$$$$
