
     RDKit          3D

 33 36  0  0  0  0  0  0  0  0999 V2000
   -5.1808   -3.6190   10.3777 C   0  0  0  0  0  0  0  0  0  0  0  0
   -4.4135   -2.7138   11.7092 S   0  0  0  0  0  6  0  0  0  0  0  0
   -5.4800   -2.0753   12.5634 O   0  0  0  0  0  0  0  0  0  0  0  0
   -3.6701   -3.7034   12.5605 O   0  0  0  0  0  0  0  0  0  0  0  0
   -3.3315   -1.4873   11.0909 C   0  0  0  0  0  0  0  0  0  0  0  0
   -3.7745   -0.2570   10.6501 C   0  0  0  0  0  0  0  0  0  0  0  0
   -2.9216    0.6706   10.1784 N   0  0  0  0  0  0  0  0  0  0  0  0
   -1.5814    0.4260   10.1192 C   0  0  0  0  0  0  0  0  0  0  0  0
   -1.0872   -0.7826   10.5453 C   0  0  0  0  0  0  0  0  0  0  0  0
   -1.9591   -1.7308   11.0274 C   0  0  0  0  0  0  0  0  0  0  0  0
    0.2901   -1.0762   10.5012 N   0  0  0  0  0  0  0  0  0  0  0  0
    0.8496   -1.9810    9.5515 C   0  0  0  0  0  0  0  0  0  0  0  0
   -0.0115   -2.4968    8.7507 O   0  0  0  0  0  0  0  0  0  0  0  0
    2.2188   -2.3226    9.4340 N   0  0  0  0  0  0  0  0  0  0  0  0
    3.1639   -1.7326   10.3133 C   0  0  0  0  0  0  0  0  0  0  0  0
    2.9241   -0.8377   11.3076 C   0  0  0  0  0  0  0  0  0  0  0  0
    1.3050   -0.3005   11.6438 S   0  0  0  0  0  6  0  0  0  0  0  0
    1.2155    1.1930   11.5489 O   0  0  0  0  0  0  0  0  0  0  0  0
    0.8466   -0.7264   13.0158 O   0  0  0  0  0  0  0  0  0  0  0  0
    3.9310   -0.3226   12.0865 C   0  0  0  0  0  0  0  0  0  0  0  0
    5.2289   -0.6833   11.9026 C   0  0  0  0  0  0  0  0  0  0  0  0
    5.4642   -1.6049   10.8768 C   0  0  0  0  0  0  0  0  0  0  0  0
    4.4526   -2.0854   10.1371 N   0  0  0  0  0  0  0  0  0  0  0  0
    2.6206   -3.3198    8.4533 C   0  0  0  0  0  0  0  0  0  0  0  0
    3.2590   -2.8714    7.2355 C   0  0  0  0  0  0  0  0  0  0  0  0
    3.9393   -3.6099    6.3115 C   0  0  0  0  0  0  0  0  0  0  0  0
    4.4905   -3.0490    5.1422 C   0  0  0  0  0  0  0  0  0  0  0  0
    4.3677   -1.7168    4.8730 C   0  0  0  0  0  0  0  0  0  0  0  0
    3.6896   -0.9487    5.7799 C   0  0  0  0  0  0  0  0  0  0  0  0
    3.1512   -1.4980    6.9216 C   0  0  0  0  0  0  0  0  0  0  0  0
    2.4528   -0.6899    7.7653 F   0  0  0  0  0  0  0  0  0  0  0  0
    4.8913   -1.1458    3.7495 F   0  0  0  0  0  0  0  0  0  0  0  0
    4.0937   -4.9312    6.5018 F   0  0  0  0  0  0  0  0  0  0  0  0
  1  2  1  0
  2  3  2  0
  2  4  2  0
  2  5  1  0
  5  6  2  0
  6  7  1  0
  7  8  2  0
  8  9  1  0
  9 10  2  0
  9 11  1  0
 11 12  1  0
 12 13  2  0
 12 14  1  0
 14 15  1  0
 15 16  2  0
 16 17  1  0
 17 18  2  0
 17 19  2  0
 16 20  1  0
 20 21  2  0
 21 22  1  0
 22 23  2  0
 14 24  1  0
 24 25  1  0
 25 26  2  0
 26 27  1  0
 27 28  2  0
 28 29  1  0
 29 30  2  0
 30 31  1  0
 28 32  1  0
 26 33  1  0
 10  5  1  0
 17 11  1  0
 23 15  1  0
 30 25  1  0
M  END
$$$$
