
     RDKit          3D

 33 36  0  0  0  0  0  0  0  0999 V2000
   -0.6883    3.1599    7.2682 C   0  0  0  0  0  0  0  0  0  0  0  0
   -0.7529    1.7019    6.2428 S   0  0  0  0  0  6  0  0  0  0  0  0
   -1.8897    0.8197    6.6941 O   0  0  0  0  0  0  0  0  0  0  0  0
   -1.0435    2.1485    4.8381 O   0  0  0  0  0  0  0  0  0  0  0  0
    0.7536    0.8173    6.3161 C   0  0  0  0  0  0  0  0  0  0  0  0
    1.7143    0.8994    5.3290 C   0  0  0  0  0  0  0  0  0  0  0  0
    2.8661    0.2084    5.4085 N   0  0  0  0  0  0  0  0  0  0  0  0
    3.1258   -0.6022    6.4739 C   0  0  0  0  0  0  0  0  0  0  0  0
    2.2033   -0.7204    7.4845 C   0  0  0  0  0  0  0  0  0  0  0  0
    1.0259   -0.0140    7.4031 C   0  0  0  0  0  0  0  0  0  0  0  0
    2.4319   -1.5467    8.6025 N   0  0  0  0  0  0  0  0  0  0  0  0
    1.4219   -2.3930    9.1478 C   0  0  0  0  0  0  0  0  0  0  0  0
    0.2978   -2.3302    8.5303 O   0  0  0  0  0  0  0  0  0  0  0  0
    1.5715   -3.2578   10.2592 N   0  0  0  0  0  0  0  0  0  0  0  0
    2.8239   -3.3320   10.9228 C   0  0  0  0  0  0  0  0  0  0  0  0
    3.9611   -2.6502   10.6247 C   0  0  0  0  0  0  0  0  0  0  0  0
    3.9922   -1.5119    9.3107 S   0  0  0  0  0  6  0  0  0  0  0  0
    5.0623   -1.8743    8.3253 O   0  0  0  0  0  0  0  0  0  0  0  0
    4.2362   -0.1045    9.7941 O   0  0  0  0  0  0  0  0  0  0  0  0
    5.1236   -2.8205   11.3355 C   0  0  0  0  0  0  0  0  0  0  0  0
    5.1983   -3.6856   12.3818 C   0  0  0  0  0  0  0  0  0  0  0  0
    4.0221   -4.3818   12.6799 C   0  0  0  0  0  0  0  0  0  0  0  0
    2.9055   -4.1875   11.9610 N   0  0  0  0  0  0  0  0  0  0  0  0
    0.4189   -4.0070   10.7365 C   0  0  0  0  0  0  0  0  0  0  0  0
   -0.5698   -3.3167   11.5350 C   0  0  0  0  0  0  0  0  0  0  0  0
   -0.6897   -1.9773   11.7671 C   0  0  0  0  0  0  0  0  0  0  0  0
   -1.7274   -1.4278   12.5459 C   0  0  0  0  0  0  0  0  0  0  0  0
   -2.6794   -2.2228   13.1152 C   0  0  0  0  0  0  0  0  0  0  0  0
   -2.5878   -3.5710   12.9002 C   0  0  0  0  0  0  0  0  0  0  0  0
   -1.5738   -4.1066   12.1387 C   0  0  0  0  0  0  0  0  0  0  0  0
   -1.5595   -5.4512   11.9275 F   0  0  0  0  0  0  0  0  0  0  0  0
   -3.6952   -1.7191   13.8745 F   0  0  0  0  0  0  0  0  0  0  0  0
    0.2047   -1.1289   11.2319 F   0  0  0  0  0  0  0  0  0  0  0  0
  1  2  1  0
  2  3  2  0
  2  4  2  0
  2  5  1  0
  5  6  2  0
  6  7  1  0
  7  8  2  0
  8  9  1  0
  9 10  2  0
  9 11  1  0
 11 12  1  0
 12 13  2  0
 12 14  1  0
 14 15  1  0
 15 16  2  0
 16 17  1  0
 17 18  2  0
 17 19  2  0
 16 20  1  0
 20 21  2  0
 21 22  1  0
 22 23  2  0
 14 24  1  0
 24 25  1  0
 25 26  2  0
 26 27  1  0
 27 28  2  0
 28 29  1  0
 29 30  2  0
 30 31  1  0
 28 32  1  0
 26 33  1  0
 10  5  1  0
 17 11  1  0
 23 15  1  0
 30 25  1  0
M  END
$$$$
