
     RDKit          3D

 33 36  0  0  0  0  0  0  0  0999 V2000
    3.3404   -0.1842   14.7475 C   0  0  0  0  0  0  0  0  0  0  0  0
    4.5396   -1.5028   14.6806 S   0  0  0  0  0  6  0  0  0  0  0  0
    5.8233   -1.0484   15.3289 O   0  0  0  0  0  0  0  0  0  0  0  0
    3.9966   -2.6501   15.4841 O   0  0  0  0  0  0  0  0  0  0  0  0
    4.8453   -1.9884   13.0289 C   0  0  0  0  0  0  0  0  0  0  0  0
    6.0678   -2.4709   12.6087 C   0  0  0  0  0  0  0  0  0  0  0  0
    6.2783   -2.8383   11.3315 N   0  0  0  0  0  0  0  0  0  0  0  0
    5.2847   -2.7460   10.4021 C   0  0  0  0  0  0  0  0  0  0  0  0
    4.0483   -2.2722   10.7672 C   0  0  0  0  0  0  0  0  0  0  0  0
    3.8333   -1.8967   12.0728 C   0  0  0  0  0  0  0  0  0  0  0  0
    2.9946   -2.1608    9.8387 N   0  0  0  0  0  0  0  0  0  0  0  0
    1.6961   -2.6957   10.0870 C   0  0  0  0  0  0  0  0  0  0  0  0
    1.5809   -3.2820   11.2236 O   0  0  0  0  0  0  0  0  0  0  0  0
    0.5836   -2.6191    9.2143 N   0  0  0  0  0  0  0  0  0  0  0  0
    0.7180   -1.9531    7.9682 C   0  0  0  0  0  0  0  0  0  0  0  0
    1.8268   -1.3469    7.4682 C   0  0  0  0  0  0  0  0  0  0  0  0
    3.3160   -1.3458    8.3657 S   0  0  0  0  0  6  0  0  0  0  0  0
    3.7918    0.0573    8.5946 O   0  0  0  0  0  0  0  0  0  0  0  0
    4.4004   -2.1142    7.6531 O   0  0  0  0  0  0  0  0  0  0  0  0
    1.8287   -0.7171    6.2479 C   0  0  0  0  0  0  0  0  0  0  0  0
    0.7142   -0.6667    5.4708 C   0  0  0  0  0  0  0  0  0  0  0  0
   -0.4211   -1.2939    5.9950 C   0  0  0  0  0  0  0  0  0  0  0  0
   -0.3827   -1.8991    7.1924 N   0  0  0  0  0  0  0  0  0  0  0  0
   -0.6584   -3.2795    9.5869 C   0  0  0  0  0  0  0  0  0  0  0  0
   -1.6292   -2.5371   10.3602 C   0  0  0  0  0  0  0  0  0  0  0  0
   -1.9887   -1.2263   10.2389 C   0  0  0  0  0  0  0  0  0  0  0  0
   -2.9803   -0.6295   11.0427 C   0  0  0  0  0  0  0  0  0  0  0  0
   -3.6406   -1.3468   11.9976 C   0  0  0  0  0  0  0  0  0  0  0  0
   -3.3038   -2.6650   12.1435 C   0  0  0  0  0  0  0  0  0  0  0  0
   -2.3352   -3.2469   11.3572 C   0  0  0  0  0  0  0  0  0  0  0  0
   -2.0732   -4.5723   11.5222 F   0  0  0  0  0  0  0  0  0  0  0  0
   -4.6046   -0.7957   12.7909 F   0  0  0  0  0  0  0  0  0  0  0  0
   -1.3896   -0.4573    9.3138 F   0  0  0  0  0  0  0  0  0  0  0  0
  1  2  1  0
  2  3  2  0
  2  4  2  0
  2  5  1  0
  5  6  2  0
  6  7  1  0
  7  8  2  0
  8  9  1  0
  9 10  2  0
  9 11  1  0
 11 12  1  0
 12 13  2  0
 12 14  1  0
 14 15  1  0
 15 16  2  0
 16 17  1  0
 17 18  2  0
 17 19  2  0
 16 20  1  0
 20 21  2  0
 21 22  1  0
 22 23  2  0
 14 24  1  0
 24 25  1  0
 25 26  2  0
 26 27  1  0
 27 28  2  0
 28 29  1  0
 29 30  2  0
 30 31  1  0
 28 32  1  0
 26 33  1  0
 10  5  1  0
 17 11  1  0
 23 15  1  0
 30 25  1  0
M  END
$$$$
