
     RDKit          3D

 33 36  0  0  0  0  0  0  0  0999 V2000
   -2.3597    2.6670    5.8432 C   0  0  0  0  0  0  0  0  0  0  0  0
   -1.8069    1.9734    7.3906 S   0  0  0  0  0  6  0  0  0  0  0  0
   -1.8913    3.0227    8.4707 O   0  0  0  0  0  0  0  0  0  0  0  0
   -2.7503    0.8614    7.7514 O   0  0  0  0  0  0  0  0  0  0  0  0
   -0.1667    1.3816    7.2614 C   0  0  0  0  0  0  0  0  0  0  0  0
    0.7473    1.9085    6.3719 C   0  0  0  0  0  0  0  0  0  0  0  0
    2.0043    1.4356    6.2914 N   0  0  0  0  0  0  0  0  0  0  0  0
    2.4217    0.4128    7.0909 C   0  0  0  0  0  0  0  0  0  0  0  0
    1.5522   -0.1481    7.9940 C   0  0  0  0  0  0  0  0  0  0  0  0
    0.2671    0.3354    8.0763 C   0  0  0  0  0  0  0  0  0  0  0  0
    1.9425   -1.2062    8.8385 N   0  0  0  0  0  0  0  0  0  0  0  0
    1.0216   -2.1861    9.3132 C   0  0  0  0  0  0  0  0  0  0  0  0
   -0.1829   -2.0135    8.9029 O   0  0  0  0  0  0  0  0  0  0  0  0
    1.3326   -3.2822   10.1540 N   0  0  0  0  0  0  0  0  0  0  0  0
    2.6708   -3.4729   10.5867 C   0  0  0  0  0  0  0  0  0  0  0  0
    3.7540   -2.7071   10.2915 C   0  0  0  0  0  0  0  0  0  0  0  0
    3.5926   -1.2923    9.2938 S   0  0  0  0  0  6  0  0  0  0  0  0
    4.4980   -1.3822    8.1023 O   0  0  0  0  0  0  0  0  0  0  0  0
    3.9166   -0.0307   10.0535 O   0  0  0  0  0  0  0  0  0  0  0  0
    5.0099   -3.0047   10.7603 C   0  0  0  0  0  0  0  0  0  0  0  0
    5.2370   -4.0882   11.5497 C   0  0  0  0  0  0  0  0  0  0  0  0
    4.1153   -4.8692   11.8473 C   0  0  0  0  0  0  0  0  0  0  0  0
    2.9037   -4.5449   11.3695 N   0  0  0  0  0  0  0  0  0  0  0  0
    0.2610   -4.1560   10.6077 C   0  0  0  0  0  0  0  0  0  0  0  0
   -0.7492   -3.6094   11.4865 C   0  0  0  0  0  0  0  0  0  0  0  0
   -0.7550   -3.5657   12.8504 C   0  0  0  0  0  0  0  0  0  0  0  0
   -1.7962   -2.9707   13.5903 C   0  0  0  0  0  0  0  0  0  0  0  0
   -2.8674   -2.3992   12.9671 C   0  0  0  0  0  0  0  0  0  0  0  0
   -2.8908   -2.4256   11.5993 C   0  0  0  0  0  0  0  0  0  0  0  0
   -1.8727   -3.0067   10.8776 C   0  0  0  0  0  0  0  0  0  0  0  0
   -1.9332   -2.9655    9.5185 F   0  0  0  0  0  0  0  0  0  0  0  0
   -3.8904   -1.8165   13.6572 F   0  0  0  0  0  0  0  0  0  0  0  0
    0.2706   -4.0994   13.5354 F   0  0  0  0  0  0  0  0  0  0  0  0
  1  2  1  0
  2  3  2  0
  2  4  2  0
  2  5  1  0
  5  6  2  0
  6  7  1  0
  7  8  2  0
  8  9  1  0
  9 10  2  0
  9 11  1  0
 11 12  1  0
 12 13  2  0
 12 14  1  0
 14 15  1  0
 15 16  2  0
 16 17  1  0
 17 18  2  0
 17 19  2  0
 16 20  1  0
 20 21  2  0
 21 22  1  0
 22 23  2  0
 14 24  1  0
 24 25  1  0
 25 26  2  0
 26 27  1  0
 27 28  2  0
 28 29  1  0
 29 30  2  0
 30 31  1  0
 28 32  1  0
 26 33  1  0
 10  5  1  0
 17 11  1  0
 23 15  1  0
 30 25  1  0
M  END
$$$$
