
     RDKit          3D

 33 36  0  0  0  0  0  0  0  0999 V2000
   -2.5718    1.1897    9.4449 C   0  0  0  0  0  0  0  0  0  0  0  0
   -3.3881    0.1706   10.6598 S   0  0  0  0  0  6  0  0  0  0  0  0
   -3.5045    0.9305   11.9574 O   0  0  0  0  0  0  0  0  0  0  0  0
   -4.7773   -0.1060   10.1596 O   0  0  0  0  0  0  0  0  0  0  0  0
   -2.5110   -1.3198   10.9186 C   0  0  0  0  0  0  0  0  0  0  0  0
   -3.1066   -2.4557   11.4275 C   0  0  0  0  0  0  0  0  0  0  0  0
   -2.4099   -3.5910   11.6175 N   0  0  0  0  0  0  0  0  0  0  0  0
   -1.0826   -3.6591   11.3120 C   0  0  0  0  0  0  0  0  0  0  0  0
   -0.4405   -2.5571   10.8025 C   0  0  0  0  0  0  0  0  0  0  0  0
   -1.1528   -1.3966   10.6083 C   0  0  0  0  0  0  0  0  0  0  0  0
    0.9291   -2.5847   10.4736 N   0  0  0  0  0  0  0  0  0  0  0  0
    1.5434   -1.5801    9.6690 C   0  0  0  0  0  0  0  0  0  0  0  0
    0.7382   -0.6597    9.2771 O   0  0  0  0  0  0  0  0  0  0  0  0
    2.9098   -1.5287    9.3013 N   0  0  0  0  0  0  0  0  0  0  0  0
    3.7939   -2.5420    9.7551 C   0  0  0  0  0  0  0  0  0  0  0  0
    3.4946   -3.6142   10.5348 C   0  0  0  0  0  0  0  0  0  0  0  0
    1.8658   -3.8861   11.0788 S   0  0  0  0  0  6  0  0  0  0  0  0
    1.8164   -3.9628   12.5753 O   0  0  0  0  0  0  0  0  0  0  0  0
    1.2898   -5.1583   10.5099 O   0  0  0  0  0  0  0  0  0  0  0  0
    4.4467   -4.5240   10.9240 C   0  0  0  0  0  0  0  0  0  0  0  0
    5.7471   -4.3991   10.5473 C   0  0  0  0  0  0  0  0  0  0  0  0
    6.0439   -3.2922    9.7450 C   0  0  0  0  0  0  0  0  0  0  0  0
    5.0847   -2.4249    9.3857 N   0  0  0  0  0  0  0  0  0  0  0  0
    3.3673   -0.4703    8.4135 C   0  0  0  0  0  0  0  0  0  0  0  0
    3.4738   -0.7542    6.9994 C   0  0  0  0  0  0  0  0  0  0  0  0
    2.5377   -1.2998    6.1698 C   0  0  0  0  0  0  0  0  0  0  0  0
    2.7604   -1.4958    4.7923 C   0  0  0  0  0  0  0  0  0  0  0  0
    3.9439   -1.1427    4.2116 C   0  0  0  0  0  0  0  0  0  0  0  0
    4.9032   -0.5917    5.0167 C   0  0  0  0  0  0  0  0  0  0  0  0
    4.6842   -0.4003    6.3622 C   0  0  0  0  0  0  0  0  0  0  0  0
    5.6618    0.1898    7.1029 F   0  0  0  0  0  0  0  0  0  0  0  0
    4.1881   -1.3212    2.8809 F   0  0  0  0  0  0  0  0  0  0  0  0
    1.3432   -1.6641    6.6664 F   0  0  0  0  0  0  0  0  0  0  0  0
  1  2  1  0
  2  3  2  0
  2  4  2  0
  2  5  1  0
  5  6  2  0
  6  7  1  0
  7  8  2  0
  8  9  1  0
  9 10  2  0
  9 11  1  0
 11 12  1  0
 12 13  2  0
 12 14  1  0
 14 15  1  0
 15 16  2  0
 16 17  1  0
 17 18  2  0
 17 19  2  0
 16 20  1  0
 20 21  2  0
 21 22  1  0
 22 23  2  0
 14 24  1  0
 24 25  1  0
 25 26  2  0
 26 27  1  0
 27 28  2  0
 28 29  1  0
 29 30  2  0
 30 31  1  0
 28 32  1  0
 26 33  1  0
 10  5  1  0
 17 11  1  0
 23 15  1  0
 30 25  1  0
M  END
$$$$
