
     RDKit          3D

 33 36  0  0  0  0  0  0  0  0999 V2000
   -3.0529    4.3063   10.0675 C   0  0  0  0  0  0  0  0  0  0  0  0
   -2.6350    2.6508    9.5519 S   0  0  0  0  0  6  0  0  0  0  0  0
   -3.7485    1.7086    9.9354 O   0  0  0  0  0  0  0  0  0  0  0  0
   -2.5291    2.6561    8.0534 O   0  0  0  0  0  0  0  0  0  0  0  0
   -1.1341    2.1278   10.2807 C   0  0  0  0  0  0  0  0  0  0  0  0
   -0.6657    2.6426   11.4722 C   0  0  0  0  0  0  0  0  0  0  0  0
    0.4929    2.2235   12.0130 N   0  0  0  0  0  0  0  0  0  0  0  0
    1.2494    1.2696   11.3987 C   0  0  0  0  0  0  0  0  0  0  0  0
    0.8293    0.7238   10.2104 C   0  0  0  0  0  0  0  0  0  0  0  0
   -0.3551    1.1522    9.6577 C   0  0  0  0  0  0  0  0  0  0  0  0
    1.5804   -0.2638    9.5429 N   0  0  0  0  0  0  0  0  0  0  0  0
    1.0244   -1.5202    9.1609 C   0  0  0  0  0  0  0  0  0  0  0  0
   -0.2110   -1.6639    9.4803 O   0  0  0  0  0  0  0  0  0  0  0  0
    1.7052   -2.5596    8.4816 N   0  0  0  0  0  0  0  0  0  0  0  0
    3.0656   -2.3824    8.1180 C   0  0  0  0  0  0  0  0  0  0  0  0
    3.8489   -1.2952    8.3449 C   0  0  0  0  0  0  0  0  0  0  0  0
    3.2202    0.0882    9.1900 S   0  0  0  0  0  6  0  0  0  0  0  0
    3.3598    1.3244    8.3535 O   0  0  0  0  0  0  0  0  0  0  0  0
    3.9260    0.3107   10.5038 O   0  0  0  0  0  0  0  0  0  0  0  0
    5.1559   -1.2354    7.9277 C   0  0  0  0  0  0  0  0  0  0  0  0
    5.7386   -2.2676    7.2616 C   0  0  0  0  0  0  0  0  0  0  0  0
    4.9235   -3.3814    7.0337 C   0  0  0  0  0  0  0  0  0  0  0  0
    3.6501   -3.4013    7.4574 N   0  0  0  0  0  0  0  0  0  0  0  0
    1.0127   -3.8135    8.2251 C   0  0  0  0  0  0  0  0  0  0  0  0
    0.5711   -4.6010    9.3548 C   0  0  0  0  0  0  0  0  0  0  0  0
    1.2643   -5.5453   10.0548 C   0  0  0  0  0  0  0  0  0  0  0  0
    0.7224   -6.2227   11.1652 C   0  0  0  0  0  0  0  0  0  0  0  0
   -0.5440   -5.9618   11.6018 C   0  0  0  0  0  0  0  0  0  0  0  0
   -1.2652   -5.0187   10.9215 C   0  0  0  0  0  0  0  0  0  0  0  0
   -0.7344   -4.3573    9.8371 C   0  0  0  0  0  0  0  0  0  0  0  0
   -1.4862   -3.4008    9.2268 F   0  0  0  0  0  0  0  0  0  0  0  0
   -1.0952   -6.6022   12.6734 F   0  0  0  0  0  0  0  0  0  0  0  0
    2.5216   -5.8504    9.6910 F   0  0  0  0  0  0  0  0  0  0  0  0
  1  2  1  0
  2  3  2  0
  2  4  2  0
  2  5  1  0
  5  6  2  0
  6  7  1  0
  7  8  2  0
  8  9  1  0
  9 10  2  0
  9 11  1  0
 11 12  1  0
 12 13  2  0
 12 14  1  0
 14 15  1  0
 15 16  2  0
 16 17  1  0
 17 18  2  0
 17 19  2  0
 16 20  1  0
 20 21  2  0
 21 22  1  0
 22 23  2  0
 14 24  1  0
 24 25  1  0
 25 26  2  0
 26 27  1  0
 27 28  2  0
 28 29  1  0
 29 30  2  0
 30 31  1  0
 28 32  1  0
 26 33  1  0
 10  5  1  0
 17 11  1  0
 23 15  1  0
 30 25  1  0
M  END
$$$$
