
     RDKit          3D

 33 36  0  0  0  0  0  0  0  0999 V2000
    2.4370    0.1295    3.3540 C   0  0  0  0  0  0  0  0  0  0  0  0
    3.3086   -0.3318    4.8402 S   0  0  0  0  0  6  0  0  0  0  0  0
    3.6260   -1.8057    4.8000 O   0  0  0  0  0  0  0  0  0  0  0  0
    4.6085    0.4210    4.8552 O   0  0  0  0  0  0  0  0  0  0  0  0
    2.3598    0.0350    6.2623 C   0  0  0  0  0  0  0  0  0  0  0  0
    1.5818    1.1700    6.3661 C   0  0  0  0  0  0  0  0  0  0  0  0
    0.8603    1.4301    7.4716 N   0  0  0  0  0  0  0  0  0  0  0  0
    0.8726    0.5760    8.5346 C   0  0  0  0  0  0  0  0  0  0  0  0
    1.6301   -0.5686    8.4837 C   0  0  0  0  0  0  0  0  0  0  0  0
    2.3677   -0.8344    7.3536 C   0  0  0  0  0  0  0  0  0  0  0  0
    1.6711   -1.4775    9.5593 N   0  0  0  0  0  0  0  0  0  0  0  0
    0.6029   -2.3795    9.8403 C   0  0  0  0  0  0  0  0  0  0  0  0
   -0.3882   -2.2847    9.0293 O   0  0  0  0  0  0  0  0  0  0  0  0
    0.5688   -3.3274   10.8917 N   0  0  0  0  0  0  0  0  0  0  0  0
    1.6776   -3.4354   11.7710 C   0  0  0  0  0  0  0  0  0  0  0  0
    2.8297   -2.7151   11.7437 C   0  0  0  0  0  0  0  0  0  0  0  0
    3.0709   -1.4757   10.5483 S   0  0  0  0  0  6  0  0  0  0  0  0
    4.3158   -1.7426    9.7568 O   0  0  0  0  0  0  0  0  0  0  0  0
    3.1790   -0.1077   11.1734 O   0  0  0  0  0  0  0  0  0  0  0  0
    3.8444   -2.9238   12.6452 C   0  0  0  0  0  0  0  0  0  0  0  0
    3.7488   -3.8681   13.6188 C   0  0  0  0  0  0  0  0  0  0  0  0
    2.5589   -4.6033   13.6378 C   0  0  0  0  0  0  0  0  0  0  0  0
    1.5901   -4.3693   12.7388 N   0  0  0  0  0  0  0  0  0  0  0  0
   -0.6298   -4.1294   11.0866 C   0  0  0  0  0  0  0  0  0  0  0  0
   -1.6826   -3.6031   11.9270 C   0  0  0  0  0  0  0  0  0  0  0  0
   -2.2206   -4.1485   13.0563 C   0  0  0  0  0  0  0  0  0  0  0  0
   -3.2294   -3.5111   13.8056 C   0  0  0  0  0  0  0  0  0  0  0  0
   -3.7252   -2.2960   13.4313 C   0  0  0  0  0  0  0  0  0  0  0  0
   -3.2054   -1.7216   12.3033 C   0  0  0  0  0  0  0  0  0  0  0  0
   -2.2195   -2.3452   11.5725 C   0  0  0  0  0  0  0  0  0  0  0  0
   -1.7142   -1.7050   10.4828 F   0  0  0  0  0  0  0  0  0  0  0  0
   -4.7021   -1.6553   14.1366 F   0  0  0  0  0  0  0  0  0  0  0  0
   -1.7771   -5.3393   13.4938 F   0  0  0  0  0  0  0  0  0  0  0  0
  1  2  1  0
  2  3  2  0
  2  4  2  0
  2  5  1  0
  5  6  2  0
  6  7  1  0
  7  8  2  0
  8  9  1  0
  9 10  2  0
  9 11  1  0
 11 12  1  0
 12 13  2  0
 12 14  1  0
 14 15  1  0
 15 16  2  0
 16 17  1  0
 17 18  2  0
 17 19  2  0
 16 20  1  0
 20 21  2  0
 21 22  1  0
 22 23  2  0
 14 24  1  0
 24 25  1  0
 25 26  2  0
 26 27  1  0
 27 28  2  0
 28 29  1  0
 29 30  2  0
 30 31  1  0
 28 32  1  0
 26 33  1  0
 10  5  1  0
 17 11  1  0
 23 15  1  0
 30 25  1  0
M  END
$$$$
