
     RDKit          3D

 33 36  0  0  0  0  0  0  0  0999 V2000
    5.0272   -2.2559   14.1276 C   0  0  0  0  0  0  0  0  0  0  0  0
    4.8793   -0.7221   13.2295 S   0  0  0  0  0  6  0  0  0  0  0  0
    3.9128    0.1883   13.9448 O   0  0  0  0  0  0  0  0  0  0  0  0
    6.2284   -0.0612   13.2363 O   0  0  0  0  0  0  0  0  0  0  0  0
    4.3323   -1.0045   11.5930 C   0  0  0  0  0  0  0  0  0  0  0  0
    5.1971   -1.3005   10.5593 C   0  0  0  0  0  0  0  0  0  0  0  0
    4.7514   -1.5139    9.3078 N   0  0  0  0  0  0  0  0  0  0  0  0
    3.4213   -1.4447    9.0154 C   0  0  0  0  0  0  0  0  0  0  0  0
    2.5171   -1.1535   10.0074 C   0  0  0  0  0  0  0  0  0  0  0  0
    2.9728   -0.9354   11.2867 C   0  0  0  0  0  0  0  0  0  0  0  0
    1.1346   -1.0724    9.7484 N   0  0  0  0  0  0  0  0  0  0  0  0
    0.2002   -2.0099   10.2791 C   0  0  0  0  0  0  0  0  0  0  0  0
    0.7331   -2.9244   11.0062 O   0  0  0  0  0  0  0  0  0  0  0  0
   -1.2010   -1.9945   10.0756 N   0  0  0  0  0  0  0  0  0  0  0  0
   -1.7807   -0.9685    9.2846 C   0  0  0  0  0  0  0  0  0  0  0  0
   -1.1429    0.0562    8.6599 C   0  0  0  0  0  0  0  0  0  0  0  0
    0.5861    0.2127    8.7558 S   0  0  0  0  0  6  0  0  0  0  0  0
    0.9633    1.5517    9.3145 O   0  0  0  0  0  0  0  0  0  0  0  0
    1.2393    0.0500    7.4065 O   0  0  0  0  0  0  0  0  0  0  0  0
   -1.8196    1.0030    7.9309 C   0  0  0  0  0  0  0  0  0  0  0  0
   -3.1719    0.9646    7.7949 C   0  0  0  0  0  0  0  0  0  0  0  0
   -3.8180   -0.0942    8.4418 C   0  0  0  0  0  0  0  0  0  0  0  0
   -3.1208   -1.0000    9.1452 N   0  0  0  0  0  0  0  0  0  0  0  0
   -2.0115   -3.0677   10.6315 C   0  0  0  0  0  0  0  0  0  0  0  0
   -3.1240   -2.7193   11.4874 C   0  0  0  0  0  0  0  0  0  0  0  0
   -4.4067   -3.1831   11.4441 C   0  0  0  0  0  0  0  0  0  0  0  0
   -5.3946   -2.7820   12.3653 C   0  0  0  0  0  0  0  0  0  0  0  0
   -5.1107   -1.8951   13.3630 C   0  0  0  0  0  0  0  0  0  0  0  0
   -3.8324   -1.4122   13.4343 C   0  0  0  0  0  0  0  0  0  0  0  0
   -2.8681   -1.8053   12.5339 C   0  0  0  0  0  0  0  0  0  0  0  0
   -1.6046   -1.3211   12.6814 F   0  0  0  0  0  0  0  0  0  0  0  0
   -6.0467   -1.4881   14.2688 F   0  0  0  0  0  0  0  0  0  0  0  0
   -4.7606   -4.0669   10.4956 F   0  0  0  0  0  0  0  0  0  0  0  0
  1  2  1  0
  2  3  2  0
  2  4  2  0
  2  5  1  0
  5  6  2  0
  6  7  1  0
  7  8  2  0
  8  9  1  0
  9 10  2  0
  9 11  1  0
 11 12  1  0
 12 13  2  0
 12 14  1  0
 14 15  1  0
 15 16  2  0
 16 17  1  0
 17 18  2  0
 17 19  2  0
 16 20  1  0
 20 21  2  0
 21 22  1  0
 22 23  2  0
 14 24  1  0
 24 25  1  0
 25 26  2  0
 26 27  1  0
 27 28  2  0
 28 29  1  0
 29 30  2  0
 30 31  1  0
 28 32  1  0
 26 33  1  0
 10  5  1  0
 17 11  1  0
 23 15  1  0
 30 25  1  0
M  END
$$$$
