
     RDKit          3D

 33 36  0  0  0  0  0  0  0  0999 V2000
    3.6612   -0.2657    4.3987 C   0  0  0  0  0  0  0  0  0  0  0  0
    2.4972   -1.2908    5.2793 S   0  0  0  0  0  6  0  0  0  0  0  0
    1.2542   -0.4928    5.5838 O   0  0  0  0  0  0  0  0  0  0  0  0
    2.1097   -2.4212    4.3689 O   0  0  0  0  0  0  0  0  0  0  0  0
    3.1945   -1.8975    6.7636 C   0  0  0  0  0  0  0  0  0  0  0  0
    4.4122   -2.5455    6.8040 C   0  0  0  0  0  0  0  0  0  0  0  0
    4.9278   -3.0033    7.9593 N   0  0  0  0  0  0  0  0  0  0  0  0
    4.2612   -2.8421    9.1379 C   0  0  0  0  0  0  0  0  0  0  0  0
    3.0450   -2.2040    9.1542 C   0  0  0  0  0  0  0  0  0  0  0  0
    2.5180   -1.7360    7.9731 C   0  0  0  0  0  0  0  0  0  0  0  0
    2.3234   -2.0166   10.3496 N   0  0  0  0  0  0  0  0  0  0  0  0
    1.0765   -2.6618   10.5999 C   0  0  0  0  0  0  0  0  0  0  0  0
    0.6790   -3.4202    9.6430 O   0  0  0  0  0  0  0  0  0  0  0  0
    0.2949   -2.5353   11.7739 N   0  0  0  0  0  0  0  0  0  0  0  0
    0.7531   -1.7081   12.8323 C   0  0  0  0  0  0  0  0  0  0  0  0
    1.8995   -0.9795   12.8774 C   0  0  0  0  0  0  0  0  0  0  0  0
    2.9955   -0.9689   11.5277 S   0  0  0  0  0  6  0  0  0  0  0  0
    4.3623   -1.4116   11.9558 O   0  0  0  0  0  0  0  0  0  0  0  0
    3.1035    0.3999   10.9042 O   0  0  0  0  0  0  0  0  0  0  0  0
    2.2439   -0.2249   13.9718 C   0  0  0  0  0  0  0  0  0  0  0  0
    1.4509   -0.1666   15.0747 C   0  0  0  0  0  0  0  0  0  0  0  0
    0.2737   -0.9201   15.0174 C   0  0  0  0  0  0  0  0  0  0  0  0
   -0.0277   -1.6453   13.9290 N   0  0  0  0  0  0  0  0  0  0  0  0
   -0.9934   -3.2082   11.8457 C   0  0  0  0  0  0  0  0  0  0  0  0
   -2.1774   -2.4742   11.4573 C   0  0  0  0  0  0  0  0  0  0  0  0
   -3.4808   -2.8749   11.5106 C   0  0  0  0  0  0  0  0  0  0  0  0
   -4.5512   -2.0425   11.1274 C   0  0  0  0  0  0  0  0  0  0  0  0
   -4.3318   -0.7731   10.6770 C   0  0  0  0  0  0  0  0  0  0  0  0
   -3.0352   -0.3407   10.6128 C   0  0  0  0  0  0  0  0  0  0  0  0
   -1.9904   -1.1547   10.9880 C   0  0  0  0  0  0  0  0  0  0  0  0
   -0.7258   -0.6535   10.9401 F   0  0  0  0  0  0  0  0  0  0  0  0
   -5.3482    0.0551   10.2985 F   0  0  0  0  0  0  0  0  0  0  0  0
   -3.7777   -4.1088   11.9526 F   0  0  0  0  0  0  0  0  0  0  0  0
  1  2  1  0
  2  3  2  0
  2  4  2  0
  2  5  1  0
  5  6  2  0
  6  7  1  0
  7  8  2  0
  8  9  1  0
  9 10  2  0
  9 11  1  0
 11 12  1  0
 12 13  2  0
 12 14  1  0
 14 15  1  0
 15 16  2  0
 16 17  1  0
 17 18  2  0
 17 19  2  0
 16 20  1  0
 20 21  2  0
 21 22  1  0
 22 23  2  0
 14 24  1  0
 24 25  1  0
 25 26  2  0
 26 27  1  0
 27 28  2  0
 28 29  1  0
 29 30  2  0
 30 31  1  0
 28 32  1  0
 26 33  1  0
 10  5  1  0
 17 11  1  0
 23 15  1  0
 30 25  1  0
M  END
$$$$
