
     RDKit          3D

 33 36  0  0  0  0  0  0  0  0999 V2000
    3.4613    1.2174   14.8881 C   0  0  0  0  0  0  0  0  0  0  0  0
    2.7243   -0.4023   14.7678 S   0  0  0  0  0  6  0  0  0  0  0  0
    2.7976   -1.0891   16.1086 O   0  0  0  0  0  0  0  0  0  0  0  0
    1.2742   -0.2157   14.4224 O   0  0  0  0  0  0  0  0  0  0  0  0
    3.5334   -1.3704   13.5572 C   0  0  0  0  0  0  0  0  0  0  0  0
    4.5246   -2.2781   13.8699 C   0  0  0  0  0  0  0  0  0  0  0  0
    5.1325   -3.0117   12.9198 N   0  0  0  0  0  0  0  0  0  0  0  0
    4.7882   -2.8831   11.6066 C   0  0  0  0  0  0  0  0  0  0  0  0
    3.8076   -1.9939   11.2405 C   0  0  0  0  0  0  0  0  0  0  0  0
    3.1862   -1.2440   12.2118 C   0  0  0  0  0  0  0  0  0  0  0  0
    3.4217   -1.8300    9.8954 N   0  0  0  0  0  0  0  0  0  0  0  0
    2.0933   -2.0852    9.4438 C   0  0  0  0  0  0  0  0  0  0  0  0
    1.2925   -2.4747   10.3690 O   0  0  0  0  0  0  0  0  0  0  0  0
    1.6226   -1.9369    8.1166 N   0  0  0  0  0  0  0  0  0  0  0  0
    2.5124   -1.4887    7.1059 C   0  0  0  0  0  0  0  0  0  0  0  0
    3.8256   -1.1660    7.2419 C   0  0  0  0  0  0  0  0  0  0  0  0
    4.6155   -1.3021    8.7848 S   0  0  0  0  0  6  0  0  0  0  0  0
    5.2130    0.0124    9.1881 O   0  0  0  0  0  0  0  0  0  0  0  0
    5.7057   -2.3438    8.7664 O   0  0  0  0  0  0  0  0  0  0  0  0
    4.5839   -0.7259    6.1849 C   0  0  0  0  0  0  0  0  0  0  0  0
    4.0573   -0.5892    4.9389 C   0  0  0  0  0  0  0  0  0  0  0  0
    2.7052   -0.9242    4.8103 C   0  0  0  0  0  0  0  0  0  0  0  0
    1.9976   -1.3508    5.8680 N   0  0  0  0  0  0  0  0  0  0  0  0
    0.2503   -2.3068    7.8040 C   0  0  0  0  0  0  0  0  0  0  0  0
   -0.8214   -1.4964    8.3392 C   0  0  0  0  0  0  0  0  0  0  0  0
   -1.6848   -1.7923    9.3537 C   0  0  0  0  0  0  0  0  0  0  0  0
   -2.6722   -0.8926    9.8020 C   0  0  0  0  0  0  0  0  0  0  0  0
   -2.8146    0.3397    9.2333 C   0  0  0  0  0  0  0  0  0  0  0  0
   -1.9629    0.6674    8.2137 C   0  0  0  0  0  0  0  0  0  0  0  0
   -0.9983   -0.2123    7.7770 C   0  0  0  0  0  0  0  0  0  0  0  0
   -0.1546    0.1869    6.7863 F   0  0  0  0  0  0  0  0  0  0  0  0
   -3.7618    1.2313    9.6460 F   0  0  0  0  0  0  0  0  0  0  0  0
   -1.6004   -2.9835    9.9700 F   0  0  0  0  0  0  0  0  0  0  0  0
  1  2  1  0
  2  3  2  0
  2  4  2  0
  2  5  1  0
  5  6  2  0
  6  7  1  0
  7  8  2  0
  8  9  1  0
  9 10  2  0
  9 11  1  0
 11 12  1  0
 12 13  2  0
 12 14  1  0
 14 15  1  0
 15 16  2  0
 16 17  1  0
 17 18  2  0
 17 19  2  0
 16 20  1  0
 20 21  2  0
 21 22  1  0
 22 23  2  0
 14 24  1  0
 24 25  1  0
 25 26  2  0
 26 27  1  0
 27 28  2  0
 28 29  1  0
 29 30  2  0
 30 31  1  0
 28 32  1  0
 26 33  1  0
 10  5  1  0
 17 11  1  0
 23 15  1  0
 30 25  1  0
M  END
$$$$
