
     RDKit          3D

 33 36  0  0  0  0  0  0  0  0999 V2000
    0.1123   -0.5971    4.3637 C   0  0  0  0  0  0  0  0  0  0  0  0
    0.4587    1.1174    4.7125 S   0  0  0  0  0  6  0  0  0  0  0  0
    1.6770    1.5522    3.9371 O   0  0  0  0  0  0  0  0  0  0  0  0
   -0.7115    1.9241    4.2259 O   0  0  0  0  0  0  0  0  0  0  0  0
    0.7200    1.3683    6.4231 C   0  0  0  0  0  0  0  0  0  0  0  0
    0.6871    2.6186    7.0060 C   0  0  0  0  0  0  0  0  0  0  0  0
    0.8914    2.7857    8.3254 N   0  0  0  0  0  0  0  0  0  0  0  0
    1.1396    1.7188    9.1376 C   0  0  0  0  0  0  0  0  0  0  0  0
    1.1833    0.4520    8.6088 C   0  0  0  0  0  0  0  0  0  0  0  0
    0.9745    0.2813    7.2600 C   0  0  0  0  0  0  0  0  0  0  0  0
    1.4366   -0.6772    9.4122 N   0  0  0  0  0  0  0  0  0  0  0  0
    0.6134   -1.0263   10.5231 C   0  0  0  0  0  0  0  0  0  0  0  0
   -0.3685   -0.2223   10.7190 O   0  0  0  0  0  0  0  0  0  0  0  0
    0.7922   -2.1451   11.3725 N   0  0  0  0  0  0  0  0  0  0  0  0
    1.8707   -3.0367   11.1354 C   0  0  0  0  0  0  0  0  0  0  0  0
    2.8077   -2.9610   10.1538 C   0  0  0  0  0  0  0  0  0  0  0  0
    2.7914   -1.6483    9.0137 S   0  0  0  0  0  6  0  0  0  0  0  0
    2.7125   -2.1705    7.6106 O   0  0  0  0  0  0  0  0  0  0  0  0
    4.0192   -0.7818    9.1391 O   0  0  0  0  0  0  0  0  0  0  0  0
    3.8002   -3.9000   10.0160 C   0  0  0  0  0  0  0  0  0  0  0  0
    3.8982   -4.9615   10.8600 C   0  0  0  0  0  0  0  0  0  0  0  0
    2.9290   -5.0294   11.8664 C   0  0  0  0  0  0  0  0  0  0  0  0
    1.9744   -4.0914   11.9679 N   0  0  0  0  0  0  0  0  0  0  0  0
   -0.0981   -2.3233   12.5097 C   0  0  0  0  0  0  0  0  0  0  0  0
   -1.4245   -2.8480   12.2715 C   0  0  0  0  0  0  0  0  0  0  0  0
   -1.8899   -4.1120   12.4902 C   0  0  0  0  0  0  0  0  0  0  0  0
   -3.2253   -4.4870   12.2424 C   0  0  0  0  0  0  0  0  0  0  0  0
   -4.1335   -3.5879   11.7637 C   0  0  0  0  0  0  0  0  0  0  0  0
   -3.6983   -2.3110   11.5349 C   0  0  0  0  0  0  0  0  0  0  0  0
   -2.3934   -1.9458   11.7779 C   0  0  0  0  0  0  0  0  0  0  0  0
   -2.0309   -0.6506   11.5690 F   0  0  0  0  0  0  0  0  0  0  0  0
   -5.4327   -3.9224   11.5138 F   0  0  0  0  0  0  0  0  0  0  0  0
   -1.0572   -5.0514   12.9702 F   0  0  0  0  0  0  0  0  0  0  0  0
  1  2  1  0
  2  3  2  0
  2  4  2  0
  2  5  1  0
  5  6  2  0
  6  7  1  0
  7  8  2  0
  8  9  1  0
  9 10  2  0
  9 11  1  0
 11 12  1  0
 12 13  2  0
 12 14  1  0
 14 15  1  0
 15 16  2  0
 16 17  1  0
 17 18  2  0
 17 19  2  0
 16 20  1  0
 20 21  2  0
 21 22  1  0
 22 23  2  0
 14 24  1  0
 24 25  1  0
 25 26  2  0
 26 27  1  0
 27 28  2  0
 28 29  1  0
 29 30  2  0
 30 31  1  0
 28 32  1  0
 26 33  1  0
 10  5  1  0
 17 11  1  0
 23 15  1  0
 30 25  1  0
M  END
$$$$
