
     RDKit          3D

 33 36  0  0  0  0  0  0  0  0999 V2000
   -3.3407   -0.4440   15.8319 C   0  0  0  0  0  0  0  0  0  0  0  0
   -1.8016   -1.3269   15.6504 S   0  0  0  0  0  6  0  0  0  0  0  0
   -0.6576   -0.3444   15.6304 O   0  0  0  0  0  0  0  0  0  0  0  0
   -1.6372   -2.2038   16.8590 O   0  0  0  0  0  0  0  0  0  0  0  0
   -1.7950   -2.2794   14.1841 C   0  0  0  0  0  0  0  0  0  0  0  0
   -2.2849   -3.5683   14.1311 C   0  0  0  0  0  0  0  0  0  0  0  0
   -2.2686   -4.2812   12.9901 N   0  0  0  0  0  0  0  0  0  0  0  0
   -1.7645   -3.7516   11.8391 C   0  0  0  0  0  0  0  0  0  0  0  0
   -1.2641   -2.4725   11.8363 C   0  0  0  0  0  0  0  0  0  0  0  0
   -1.2807   -1.7439   13.0028 C   0  0  0  0  0  0  0  0  0  0  0  0
   -0.7340   -1.8875   10.6694 N   0  0  0  0  0  0  0  0  0  0  0  0
    0.3741   -2.4477    9.9679 C   0  0  0  0  0  0  0  0  0  0  0  0
    0.8372   -3.5228   10.4956 O   0  0  0  0  0  0  0  0  0  0  0  0
    0.9595   -1.9297    8.7872 N   0  0  0  0  0  0  0  0  0  0  0  0
    0.4277   -0.7506    8.2031 C   0  0  0  0  0  0  0  0  0  0  0  0
   -0.6216   -0.0081    8.6445 C   0  0  0  0  0  0  0  0  0  0  0  0
   -1.4706   -0.4502   10.0959 S   0  0  0  0  0  6  0  0  0  0  0  0
   -2.9303   -0.6433    9.8140 O   0  0  0  0  0  0  0  0  0  0  0  0
   -1.3201    0.5940   11.1734 O   0  0  0  0  0  0  0  0  0  0  0  0
   -1.0560    1.1121    7.9794 C   0  0  0  0  0  0  0  0  0  0  0  0
   -0.4552    1.5399    6.8372 C   0  0  0  0  0  0  0  0  0  0  0  0
    0.6236    0.7685    6.3922 C   0  0  0  0  0  0  0  0  0  0  0  0
    1.0181   -0.3203    7.0706 N   0  0  0  0  0  0  0  0  0  0  0  0
    2.1346   -2.5835    8.2310 C   0  0  0  0  0  0  0  0  0  0  0  0
    3.1842   -1.7586    7.6746 C   0  0  0  0  0  0  0  0  0  0  0  0
    4.0340   -0.9119    8.3250 C   0  0  0  0  0  0  0  0  0  0  0  0
    5.0418   -0.1841    7.6617 C   0  0  0  0  0  0  0  0  0  0  0  0
    5.2197   -0.2934    6.3130 C   0  0  0  0  0  0  0  0  0  0  0  0
    4.3839   -1.1358    5.6317 C   0  0  0  0  0  0  0  0  0  0  0  0
    3.4000   -1.8466    6.2810 C   0  0  0  0  0  0  0  0  0  0  0  0
    2.6266   -2.6991    5.5547 F   0  0  0  0  0  0  0  0  0  0  0  0
    6.1865    0.3992    5.6438 F   0  0  0  0  0  0  0  0  0  0  0  0
    3.9272   -0.7584    9.6558 F   0  0  0  0  0  0  0  0  0  0  0  0
  1  2  1  0
  2  3  2  0
  2  4  2  0
  2  5  1  0
  5  6  2  0
  6  7  1  0
  7  8  2  0
  8  9  1  0
  9 10  2  0
  9 11  1  0
 11 12  1  0
 12 13  2  0
 12 14  1  0
 14 15  1  0
 15 16  2  0
 16 17  1  0
 17 18  2  0
 17 19  2  0
 16 20  1  0
 20 21  2  0
 21 22  1  0
 22 23  2  0
 14 24  1  0
 24 25  1  0
 25 26  2  0
 26 27  1  0
 27 28  2  0
 28 29  1  0
 29 30  2  0
 30 31  1  0
 28 32  1  0
 26 33  1  0
 10  5  1  0
 17 11  1  0
 23 15  1  0
 30 25  1  0
M  END
$$$$
