
     RDKit          3D

 33 36  0  0  0  0  0  0  0  0999 V2000
   -3.6821   -0.0844   14.2207 C   0  0  0  0  0  0  0  0  0  0  0  0
   -3.3138   -1.4320   13.1119 S   0  0  0  0  0  6  0  0  0  0  0  0
   -4.1858   -2.6149   13.4510 O   0  0  0  0  0  0  0  0  0  0  0  0
   -3.6633   -0.9832   11.7215 O   0  0  0  0  0  0  0  0  0  0  0  0
   -1.6281   -1.8852   13.2149 C   0  0  0  0  0  0  0  0  0  0  0  0
   -1.0779   -2.4552   14.3448 C   0  0  0  0  0  0  0  0  0  0  0  0
    0.2227   -2.7954   14.3994 N   0  0  0  0  0  0  0  0  0  0  0  0
    1.0477   -2.5875   13.3338 C   0  0  0  0  0  0  0  0  0  0  0  0
    0.5513   -2.0231   12.1842 C   0  0  0  0  0  0  0  0  0  0  0  0
   -0.7783   -1.6754   12.1284 C   0  0  0  0  0  0  0  0  0  0  0  0
    1.3690   -1.7910   11.0606 N   0  0  0  0  0  0  0  0  0  0  0  0
    0.8846   -1.9079    9.7244 C   0  0  0  0  0  0  0  0  0  0  0  0
   -0.3528   -2.2416    9.6444 O   0  0  0  0  0  0  0  0  0  0  0  0
    1.6349   -1.6837    8.5446 N   0  0  0  0  0  0  0  0  0  0  0  0
    2.9970   -1.2980    8.6458 C   0  0  0  0  0  0  0  0  0  0  0  0
    3.7213   -1.1050    9.7795 C   0  0  0  0  0  0  0  0  0  0  0  0
    3.0016   -1.3525   11.3428 S   0  0  0  0  0  6  0  0  0  0  0  0
    3.1117   -0.1108   12.1757 O   0  0  0  0  0  0  0  0  0  0  0  0
    3.6523   -2.4923   12.0852 O   0  0  0  0  0  0  0  0  0  0  0  0
    5.0373   -0.7137    9.7489 C   0  0  0  0  0  0  0  0  0  0  0  0
    5.6889   -0.4977    8.5753 C   0  0  0  0  0  0  0  0  0  0  0  0
    4.9341   -0.6995    7.4150 C   0  0  0  0  0  0  0  0  0  0  0  0
    3.6496   -1.0821    7.4866 N   0  0  0  0  0  0  0  0  0  0  0  0
    1.0099   -1.9139    7.2507 C   0  0  0  0  0  0  0  0  0  0  0  0
    0.4802   -0.7781    6.5289 C   0  0  0  0  0  0  0  0  0  0  0  0
   -0.1487    0.3261    7.0263 C   0  0  0  0  0  0  0  0  0  0  0  0
   -0.5919    1.3848    6.2088 C   0  0  0  0  0  0  0  0  0  0  0  0
   -0.4098    1.3561    4.8566 C   0  0  0  0  0  0  0  0  0  0  0  0
    0.2190    0.2624    4.3267 C   0  0  0  0  0  0  0  0  0  0  0  0
    0.6520   -0.7709    5.1265 C   0  0  0  0  0  0  0  0  0  0  0  0
    1.3070   -1.8129    4.5452 F   0  0  0  0  0  0  0  0  0  0  0  0
   -0.8288    2.3661    4.0401 F   0  0  0  0  0  0  0  0  0  0  0  0
   -0.3559    0.4315    8.3499 F   0  0  0  0  0  0  0  0  0  0  0  0
  1  2  1  0
  2  3  2  0
  2  4  2  0
  2  5  1  0
  5  6  2  0
  6  7  1  0
  7  8  2  0
  8  9  1  0
  9 10  2  0
  9 11  1  0
 11 12  1  0
 12 13  2  0
 12 14  1  0
 14 15  1  0
 15 16  2  0
 16 17  1  0
 17 18  2  0
 17 19  2  0
 16 20  1  0
 20 21  2  0
 21 22  1  0
 22 23  2  0
 14 24  1  0
 24 25  1  0
 25 26  2  0
 26 27  1  0
 27 28  2  0
 28 29  1  0
 29 30  2  0
 30 31  1  0
 28 32  1  0
 26 33  1  0
 10  5  1  0
 17 11  1  0
 23 15  1  0
 30 25  1  0
M  END
$$$$
