
     RDKit          3D

 33 36  0  0  0  0  0  0  0  0999 V2000
    4.3370   -6.3462    8.3546 C   0  0  0  0  0  0  0  0  0  0  0  0
    5.4221   -5.0199    8.8490 S   0  0  0  0  0  6  0  0  0  0  0  0
    6.6497   -5.5945    9.5103 O   0  0  0  0  0  0  0  0  0  0  0  0
    5.8601   -4.3045    7.6027 O   0  0  0  0  0  0  0  0  0  0  0  0
    4.6126   -3.9237    9.9447 C   0  0  0  0  0  0  0  0  0  0  0  0
    5.0470   -3.7060   11.2362 C   0  0  0  0  0  0  0  0  0  0  0  0
    4.4066   -2.8570   12.0605 N   0  0  0  0  0  0  0  0  0  0  0  0
    3.2992   -2.1778   11.6459 C   0  0  0  0  0  0  0  0  0  0  0  0
    2.8244   -2.3575   10.3698 C   0  0  0  0  0  0  0  0  0  0  0  0
    3.4791   -3.2255    9.5272 C   0  0  0  0  0  0  0  0  0  0  0  0
    1.6839   -1.6758    9.9014 N   0  0  0  0  0  0  0  0  0  0  0  0
    0.3629   -2.1842   10.0760 C   0  0  0  0  0  0  0  0  0  0  0  0
    0.3132   -3.3094   10.6928 O   0  0  0  0  0  0  0  0  0  0  0  0
   -0.8328   -1.5597    9.6455 N   0  0  0  0  0  0  0  0  0  0  0  0
   -0.7666   -0.3076    8.9805 C   0  0  0  0  0  0  0  0  0  0  0  0
    0.3457    0.4139    8.6818 C   0  0  0  0  0  0  0  0  0  0  0  0
    1.9255   -0.1820    9.0968 S   0  0  0  0  0  6  0  0  0  0  0  0
    2.6516    0.8068    9.9584 O   0  0  0  0  0  0  0  0  0  0  0  0
    2.7593   -0.4601    7.8715 O   0  0  0  0  0  0  0  0  0  0  0  0
    0.2802    1.6289    8.0451 C   0  0  0  0  0  0  0  0  0  0  0  0
   -0.9085    2.1772    7.6777 C   0  0  0  0  0  0  0  0  0  0  0  0
   -2.0466    1.4261    7.9900 C   0  0  0  0  0  0  0  0  0  0  0  0
   -1.9410    0.2422    8.6133 N   0  0  0  0  0  0  0  0  0  0  0  0
   -2.1018   -2.2451    9.8393 C   0  0  0  0  0  0  0  0  0  0  0  0
   -2.7609   -2.1266   11.1211 C   0  0  0  0  0  0  0  0  0  0  0  0
   -3.3285   -1.0213   11.6854 C   0  0  0  0  0  0  0  0  0  0  0  0
   -3.9720   -1.0495   12.9387 C   0  0  0  0  0  0  0  0  0  0  0  0
   -4.0604   -2.2042   13.6607 C   0  0  0  0  0  0  0  0  0  0  0  0
   -3.5018   -3.3309   13.1215 C   0  0  0  0  0  0  0  0  0  0  0  0
   -2.8738   -3.3021   11.8968 C   0  0  0  0  0  0  0  0  0  0  0  0
   -2.3733   -4.4641   11.3950 F   0  0  0  0  0  0  0  0  0  0  0  0
   -4.6767   -2.2616   14.8769 F   0  0  0  0  0  0  0  0  0  0  0  0
   -3.2905    0.1515   11.0303 F   0  0  0  0  0  0  0  0  0  0  0  0
  1  2  1  0
  2  3  2  0
  2  4  2  0
  2  5  1  0
  5  6  2  0
  6  7  1  0
  7  8  2  0
  8  9  1  0
  9 10  2  0
  9 11  1  0
 11 12  1  0
 12 13  2  0
 12 14  1  0
 14 15  1  0
 15 16  2  0
 16 17  1  0
 17 18  2  0
 17 19  2  0
 16 20  1  0
 20 21  2  0
 21 22  1  0
 22 23  2  0
 14 24  1  0
 24 25  1  0
 25 26  2  0
 26 27  1  0
 27 28  2  0
 28 29  1  0
 29 30  2  0
 30 31  1  0
 28 32  1  0
 26 33  1  0
 10  5  1  0
 17 11  1  0
 23 15  1  0
 30 25  1  0
M  END
$$$$
