
     RDKit          3D

 33 36  0  0  0  0  0  0  0  0999 V2000
   -3.9689   -2.9270   15.0932 C   0  0  0  0  0  0  0  0  0  0  0  0
   -4.2343   -2.4442   13.3969 S   0  0  0  0  0  6  0  0  0  0  0  0
   -5.5329   -3.0320   12.9041 O   0  0  0  0  0  0  0  0  0  0  0  0
   -4.3629   -0.9478   13.3665 O   0  0  0  0  0  0  0  0  0  0  0  0
   -2.9152   -2.9769   12.3802 C   0  0  0  0  0  0  0  0  0  0  0  0
   -2.4567   -4.2784   12.3762 C   0  0  0  0  0  0  0  0  0  0  0  0
   -1.4395   -4.6639   11.5843 N   0  0  0  0  0  0  0  0  0  0  0  0
   -0.8224   -3.7765   10.7529 C   0  0  0  0  0  0  0  0  0  0  0  0
   -1.2394   -2.4684   10.7176 C   0  0  0  0  0  0  0  0  0  0  0  0
   -2.2792   -2.0744   11.5271 C   0  0  0  0  0  0  0  0  0  0  0  0
   -0.6295   -1.5195    9.8735 N   0  0  0  0  0  0  0  0  0  0  0  0
    0.7748   -1.5065    9.6255 C   0  0  0  0  0  0  0  0  0  0  0  0
    1.4223   -2.4308   10.2382 O   0  0  0  0  0  0  0  0  0  0  0  0
    1.4635   -0.5969    8.7867 N   0  0  0  0  0  0  0  0  0  0  0  0
    0.7348    0.4094    8.1006 C   0  0  0  0  0  0  0  0  0  0  0  0
   -0.6049    0.6346    8.1401 C   0  0  0  0  0  0  0  0  0  0  0  0
   -1.6395   -0.3509    9.1309 S   0  0  0  0  0  6  0  0  0  0  0  0
   -2.7141   -0.9862    8.3008 O   0  0  0  0  0  0  0  0  0  0  0  0
   -2.2883    0.4489   10.2324 O   0  0  0  0  0  0  0  0  0  0  0  0
   -1.1998    1.6369    7.4140 C   0  0  0  0  0  0  0  0  0  0  0  0
   -0.4750    2.4619    6.6123 C   0  0  0  0  0  0  0  0  0  0  0  0
    0.9026    2.2212    6.5793 C   0  0  0  0  0  0  0  0  0  0  0  0
    1.4465    1.2310    7.3039 N   0  0  0  0  0  0  0  0  0  0  0  0
    2.9137   -0.6743    8.6940 C   0  0  0  0  0  0  0  0  0  0  0  0
    3.5074   -0.9775    7.4106 C   0  0  0  0  0  0  0  0  0  0  0  0
    4.3764   -0.2230    6.6772 C   0  0  0  0  0  0  0  0  0  0  0  0
    4.9088   -0.6533    5.4456 C   0  0  0  0  0  0  0  0  0  0  0  0
    4.5753   -1.8669    4.9181 C   0  0  0  0  0  0  0  0  0  0  0  0
    3.7065   -2.6482    5.6301 C   0  0  0  0  0  0  0  0  0  0  0  0
    3.1875   -2.2269    6.8335 C   0  0  0  0  0  0  0  0  0  0  0  0
    2.3598   -3.0660    7.5144 F   0  0  0  0  0  0  0  0  0  0  0  0
    5.0744   -2.3096    3.7276 F   0  0  0  0  0  0  0  0  0  0  0  0
    4.7598    0.9806    7.1359 F   0  0  0  0  0  0  0  0  0  0  0  0
  1  2  1  0
  2  3  2  0
  2  4  2  0
  2  5  1  0
  5  6  2  0
  6  7  1  0
  7  8  2  0
  8  9  1  0
  9 10  2  0
  9 11  1  0
 11 12  1  0
 12 13  2  0
 12 14  1  0
 14 15  1  0
 15 16  2  0
 16 17  1  0
 17 18  2  0
 17 19  2  0
 16 20  1  0
 20 21  2  0
 21 22  1  0
 22 23  2  0
 14 24  1  0
 24 25  1  0
 25 26  2  0
 26 27  1  0
 27 28  2  0
 28 29  1  0
 29 30  2  0
 30 31  1  0
 28 32  1  0
 26 33  1  0
 10  5  1  0
 17 11  1  0
 23 15  1  0
 30 25  1  0
M  END
$$$$
