
     RDKit          3D

 21 22  0  0  0  0  0  0  0  0999 V2000
    6.1464   -4.7780    5.3860 C   0  0  0  0  0  0  0  0  0  0  0  0
    5.4757   -4.6883    6.7278 C   0  0  0  0  0  0  0  0  0  0  0  0
    4.5339   -5.8858    6.8431 C   0  0  0  0  0  0  0  0  0  0  0  0
    6.5227   -4.7998    7.8139 C   0  0  0  0  0  0  0  0  0  0  0  0
    4.7728   -3.4587    6.9303 N   0  0  0  0  0  0  0  0  0  0  0  0
    3.9288   -3.5355    8.1525 C   0  0  0  0  0  0  0  0  0  0  0  0
    3.3004   -2.2018    8.2786 C   0  0  0  0  0  0  0  0  0  0  0  0
    1.8413   -2.0358    8.1270 C   0  0  0  0  0  0  0  0  0  0  0  0
    1.2800   -0.8892    8.5109 O   0  0  0  0  0  0  0  0  0  0  0  0
   -0.0512   -0.4345    8.5430 C   0  0  0  0  0  0  0  0  0  0  0  0
   -0.6978   -0.1658    7.4054 N   0  0  0  0  0  0  0  0  0  0  0  0
   -2.3826    0.3751    7.9646 S   0  0  0  0  0  0  0  0  0  0  0  0
   -2.0048    0.1731    9.6259 N   0  0  0  0  0  0  0  0  0  0  0  0
   -0.7232   -0.2605    9.6909 C   0  0  0  0  0  0  0  0  0  0  0  0
   -0.1238   -0.5202   10.9863 N   0  0  0  0  0  0  0  0  0  0  0  0
   -0.9537   -0.8740   12.1200 C   0  0  0  0  0  0  0  0  0  0  0  0
   -0.4810   -0.0746   13.2975 C   0  0  0  0  0  0  0  0  0  0  0  0
    0.8510   -0.2684   13.5668 O   0  0  0  0  0  0  0  0  0  0  0  0
    1.5434   -0.9782   12.6157 C   0  0  0  0  0  0  0  0  0  0  0  0
    1.3059   -0.4390   11.2016 C   0  0  0  0  0  0  0  0  0  0  0  0
    3.7251   -1.6677    9.5356 O   0  0  0  0  0  0  0  0  0  0  0  0
  1  2  1  0
  2  3  1  0
  2  4  1  0
  2  5  1  0
  5  6  1  0
  6  7  1  0
  7  8  1  0
  8  9  1  0
  9 10  1  0
 10 11  2  0
 11 12  1  0
 12 13  1  0
 13 14  2  0
 14 15  1  0
 15 16  1  0
 16 17  1  0
 17 18  1  0
 18 19  1  0
 19 20  1  0
  7 21  1  0
 14 10  1  0
 20 15  1  0
M  END
$$$$
