
     RDKit          3D

 21 22  0  0  0  0  0  0  0  0999 V2000
    7.4780   -4.8671    9.1498 C   0  0  0  0  0  0  0  0  0  0  0  0
    6.2946   -4.8439    8.2238 C   0  0  0  0  0  0  0  0  0  0  0  0
    6.8122   -4.4594    6.8387 C   0  0  0  0  0  0  0  0  0  0  0  0
    5.7020   -6.2332    8.1420 C   0  0  0  0  0  0  0  0  0  0  0  0
    5.2568   -3.9563    8.6507 N   0  0  0  0  0  0  0  0  0  0  0  0
    4.1452   -3.9401    7.6627 C   0  0  0  0  0  0  0  0  0  0  0  0
    3.1594   -2.9755    8.1986 C   0  0  0  0  0  0  0  0  0  0  0  0
    1.7337   -3.0652    7.8260 C   0  0  0  0  0  0  0  0  0  0  0  0
    0.8540   -2.2822    8.4507 O   0  0  0  0  0  0  0  0  0  0  0  0
    0.2960   -1.0277    8.1429 C   0  0  0  0  0  0  0  0  0  0  0  0
    0.4148   -0.5224    6.9121 N   0  0  0  0  0  0  0  0  0  0  0  0
   -0.4757    1.1029    7.0071 S   0  0  0  0  0  0  0  0  0  0  0  0
   -0.8846    0.8950    8.6603 N   0  0  0  0  0  0  0  0  0  0  0  0
   -0.3741   -0.2984    9.0476 C   0  0  0  0  0  0  0  0  0  0  0  0
   -0.5662   -0.7455   10.4143 N   0  0  0  0  0  0  0  0  0  0  0  0
   -1.8048   -0.4625   11.1107 C   0  0  0  0  0  0  0  0  0  0  0  0
   -1.4537    0.0159   12.4880 C   0  0  0  0  0  0  0  0  0  0  0  0
   -0.6806   -0.8839   13.1785 O   0  0  0  0  0  0  0  0  0  0  0  0
   -0.2070   -1.9391   12.4368 C   0  0  0  0  0  0  0  0  0  0  0  0
    0.4532   -1.4820   11.1322 C   0  0  0  0  0  0  0  0  0  0  0  0
    3.2951   -3.0017    9.6223 O   0  0  0  0  0  0  0  0  0  0  0  0
  1  2  1  0
  2  3  1  0
  2  4  1  0
  2  5  1  0
  5  6  1  0
  6  7  1  0
  7  8  1  0
  8  9  1  0
  9 10  1  0
 10 11  2  0
 11 12  1  0
 12 13  1  0
 13 14  2  0
 14 15  1  0
 15 16  1  0
 16 17  1  0
 17 18  1  0
 18 19  1  0
 19 20  1  0
  7 21  1  0
 14 10  1  0
 20 15  1  0
M  END
$$$$
