
     RDKit          3D

 21 22  0  0  0  0  0  0  0  0999 V2000
    4.7987   -4.1986    5.2432 C   0  0  0  0  0  0  0  0  0  0  0  0
    5.1208   -4.0717    6.7056 C   0  0  0  0  0  0  0  0  0  0  0  0
    5.6863   -5.4156    7.1619 C   0  0  0  0  0  0  0  0  0  0  0  0
    6.1909   -3.0182    6.8879 C   0  0  0  0  0  0  0  0  0  0  0  0
    3.9968   -3.6880    7.5034 N   0  0  0  0  0  0  0  0  0  0  0  0
    3.3183   -2.5033    6.9132 C   0  0  0  0  0  0  0  0  0  0  0  0
    2.1848   -2.2104    7.8181 C   0  0  0  0  0  0  0  0  0  0  0  0
    2.4107   -1.9520    9.2540 C   0  0  0  0  0  0  0  0  0  0  0  0
    1.4444   -1.3687    9.9634 O   0  0  0  0  0  0  0  0  0  0  0  0
    1.3793   -0.8860   11.2835 C   0  0  0  0  0  0  0  0  0  0  0  0
    2.3858   -1.1113   12.1324 N   0  0  0  0  0  0  0  0  0  0  0  0
    1.8417   -0.2844   13.7020 S   0  0  0  0  0  0  0  0  0  0  0  0
    0.3578    0.2471   13.0244 N   0  0  0  0  0  0  0  0  0  0  0  0
    0.3311   -0.1852   11.7410 C   0  0  0  0  0  0  0  0  0  0  0  0
   -0.8186    0.1202   10.9103 N   0  0  0  0  0  0  0  0  0  0  0  0
   -1.8620    0.9993   11.3977 C   0  0  0  0  0  0  0  0  0  0  0  0
   -3.1812    0.3689   11.0642 C   0  0  0  0  0  0  0  0  0  0  0  0
   -3.3209    0.1148    9.7226 O   0  0  0  0  0  0  0  0  0  0  0  0
   -2.1828    0.2871    8.9725 C   0  0  0  0  0  0  0  0  0  0  0  0
   -0.9729   -0.4301    9.5798 C   0  0  0  0  0  0  0  0  0  0  0  0
    1.4661   -1.1212    7.2326 O   0  0  0  0  0  0  0  0  0  0  0  0
  1  2  1  0
  2  3  1  0
  2  4  1  0
  2  5  1  0
  5  6  1  0
  6  7  1  0
  7  8  1  0
  8  9  1  0
  9 10  1  0
 10 11  2  0
 11 12  1  0
 12 13  1  0
 13 14  2  0
 14 15  1  0
 15 16  1  0
 16 17  1  0
 17 18  1  0
 18 19  1  0
 19 20  1  0
  7 21  1  0
 14 10  1  0
 20 15  1  0
M  END
$$$$
