
     RDKit          3D

 21 22  0  0  0  0  0  0  0  0999 V2000
    5.2005   -4.5769    5.2604 C   0  0  0  0  0  0  0  0  0  0  0  0
    4.9581   -4.8443    6.7192 C   0  0  0  0  0  0  0  0  0  0  0  0
    4.0075   -6.0370    6.8080 C   0  0  0  0  0  0  0  0  0  0  0  0
    6.2653   -5.2273    7.3769 C   0  0  0  0  0  0  0  0  0  0  0  0
    4.4347   -3.7147    7.4243 N   0  0  0  0  0  0  0  0  0  0  0  0
    4.1341   -4.0744    8.8358 C   0  0  0  0  0  0  0  0  0  0  0  0
    3.5385   -2.8578    9.4313 C   0  0  0  0  0  0  0  0  0  0  0  0
    2.0786   -2.7447    9.6196 C   0  0  0  0  0  0  0  0  0  0  0  0
    1.5717   -1.5879   10.0461 O   0  0  0  0  0  0  0  0  0  0  0  0
    0.2557   -1.1133   10.1979 C   0  0  0  0  0  0  0  0  0  0  0  0
   -0.7152   -1.5537    9.3931 N   0  0  0  0  0  0  0  0  0  0  0  0
   -2.2296   -0.6616    9.9883 S   0  0  0  0  0  0  0  0  0  0  0  0
   -1.3751    0.1726   11.2202 N   0  0  0  0  0  0  0  0  0  0  0  0
   -0.0818   -0.2222   11.1421 C   0  0  0  0  0  0  0  0  0  0  0  0
    0.8876    0.3256   12.0721 N   0  0  0  0  0  0  0  0  0  0  0  0
    2.2508    0.5735   11.6484 C   0  0  0  0  0  0  0  0  0  0  0  0
    3.1621    0.0595   12.7229 C   0  0  0  0  0  0  0  0  0  0  0  0
    2.9040    0.6221   13.9480 O   0  0  0  0  0  0  0  0  0  0  0  0
    1.7591    1.3787   14.0152 C   0  0  0  0  0  0  0  0  0  0  0  0
    0.5431    0.6441   13.4421 C   0  0  0  0  0  0  0  0  0  0  0  0
    4.2100   -2.6417   10.6756 O   0  0  0  0  0  0  0  0  0  0  0  0
  1  2  1  0
  2  3  1  0
  2  4  1  0
  2  5  1  0
  5  6  1  0
  6  7  1  0
  7  8  1  0
  8  9  1  0
  9 10  1  0
 10 11  2  0
 11 12  1  0
 12 13  1  0
 13 14  2  0
 14 15  1  0
 15 16  1  0
 16 17  1  0
 17 18  1  0
 18 19  1  0
 19 20  1  0
  7 21  1  0
 14 10  1  0
 20 15  1  0
M  END
$$$$
