
     RDKit          3D

 21 22  0  0  0  0  0  0  0  0999 V2000
    6.0384   -3.7443    8.4205 C   0  0  0  0  0  0  0  0  0  0  0  0
    5.2073   -4.4176    7.3649 C   0  0  0  0  0  0  0  0  0  0  0  0
    6.1347   -4.7323    6.1922 C   0  0  0  0  0  0  0  0  0  0  0  0
    4.6724   -5.7223    7.9124 C   0  0  0  0  0  0  0  0  0  0  0  0
    4.0867   -3.6359    6.9401 N   0  0  0  0  0  0  0  0  0  0  0  0
    3.2200   -3.2936    8.0993 C   0  0  0  0  0  0  0  0  0  0  0  0
    2.1039   -2.5038    7.5337 C   0  0  0  0  0  0  0  0  0  0  0  0
    1.8819   -1.1041    7.9476 C   0  0  0  0  0  0  0  0  0  0  0  0
    1.0567   -0.8562    8.9648 O   0  0  0  0  0  0  0  0  0  0  0  0
   -0.2023   -0.2338    9.0509 C   0  0  0  0  0  0  0  0  0  0  0  0
   -0.9011    0.0265    7.9427 N   0  0  0  0  0  0  0  0  0  0  0  0
   -2.4568    0.8203    8.5701 S   0  0  0  0  0  0  0  0  0  0  0  0
   -1.9734    0.7009   10.2119 N   0  0  0  0  0  0  0  0  0  0  0  0
   -0.7531    0.1131   10.2238 C   0  0  0  0  0  0  0  0  0  0  0  0
   -0.0871   -0.1200   11.4915 N   0  0  0  0  0  0  0  0  0  0  0  0
    1.3583   -0.1947   11.5571 C   0  0  0  0  0  0  0  0  0  0  0  0
    1.7150   -1.3709   12.4164 C   0  0  0  0  0  0  0  0  0  0  0  0
    1.1558   -1.2993   13.6680 O   0  0  0  0  0  0  0  0  0  0  0  0
    0.2300   -0.2986   13.8392 C   0  0  0  0  0  0  0  0  0  0  0  0
   -0.8236   -0.2858   12.7272 C   0  0  0  0  0  0  0  0  0  0  0  0
    2.2310   -2.5784    6.1110 O   0  0  0  0  0  0  0  0  0  0  0  0
  1  2  1  0
  2  3  1  0
  2  4  1  0
  2  5  1  0
  5  6  1  0
  6  7  1  0
  7  8  1  0
  8  9  1  0
  9 10  1  0
 10 11  2  0
 11 12  1  0
 12 13  1  0
 13 14  2  0
 14 15  1  0
 15 16  1  0
 16 17  1  0
 17 18  1  0
 18 19  1  0
 19 20  1  0
  7 21  1  0
 14 10  1  0
 20 15  1  0
M  END
$$$$
