
     RDKit          3D

 21 22  0  0  0  0  0  0  0  0999 V2000
   -1.7137    0.6218   12.2861 C   0  0  0  0  0  0  0  0  0  0  0  0
   -2.0969   -0.4174   11.2705 C   0  0  0  0  0  0  0  0  0  0  0  0
   -2.6161   -1.6311   12.0398 C   0  0  0  0  0  0  0  0  0  0  0  0
   -3.2211    0.1189   10.4123 C   0  0  0  0  0  0  0  0  0  0  0  0
   -1.0232   -0.7815   10.3976 N   0  0  0  0  0  0  0  0  0  0  0  0
    0.1314   -1.2996   11.1789 C   0  0  0  0  0  0  0  0  0  0  0  0
    1.1774   -1.6025   10.1771 C   0  0  0  0  0  0  0  0  0  0  0  0
    2.0131   -2.8135   10.2987 C   0  0  0  0  0  0  0  0  0  0  0  0
    3.0701   -2.9499    9.4980 O   0  0  0  0  0  0  0  0  0  0  0  0
    4.2629   -3.6895    9.5988 C   0  0  0  0  0  0  0  0  0  0  0  0
    4.8094   -3.9247   10.7948 N   0  0  0  0  0  0  0  0  0  0  0  0
    6.3235   -4.9248   10.4066 S   0  0  0  0  0  0  0  0  0  0  0  0
    6.0297   -4.8970    8.7166 N   0  0  0  0  0  0  0  0  0  0  0  0
    4.8904   -4.1901    8.5241 C   0  0  0  0  0  0  0  0  0  0  0  0
    4.3902   -3.9985    7.1758 N   0  0  0  0  0  0  0  0  0  0  0  0
    4.8897   -4.8125    6.0863 C   0  0  0  0  0  0  0  0  0  0  0  0
    5.1638   -3.9022    4.9264 C   0  0  0  0  0  0  0  0  0  0  0  0
    4.0596   -3.1784    4.5508 O   0  0  0  0  0  0  0  0  0  0  0  0
    2.9876   -3.2596    5.4064 C   0  0  0  0  0  0  0  0  0  0  0  0
    3.3864   -3.0027    6.8631 C   0  0  0  0  0  0  0  0  0  0  0  0
    0.5373   -1.5768    8.8983 O   0  0  0  0  0  0  0  0  0  0  0  0
  1  2  1  0
  2  3  1  0
  2  4  1  0
  2  5  1  0
  5  6  1  0
  6  7  1  0
  7  8  1  0
  8  9  1  0
  9 10  1  0
 10 11  2  0
 11 12  1  0
 12 13  1  0
 13 14  2  0
 14 15  1  0
 15 16  1  0
 16 17  1  0
 17 18  1  0
 18 19  1  0
 19 20  1  0
  7 21  1  0
 14 10  1  0
 20 15  1  0
M  END
$$$$
