
     RDKit          3D

 21 22  0  0  0  0  0  0  0  0999 V2000
    6.6074   -5.6286    9.7951 C   0  0  0  0  0  0  0  0  0  0  0  0
    5.8597   -5.5834   11.0979 C   0  0  0  0  0  0  0  0  0  0  0  0
    5.5299   -7.0255   11.4798 C   0  0  0  0  0  0  0  0  0  0  0  0
    6.7592   -5.0018   12.1659 C   0  0  0  0  0  0  0  0  0  0  0  0
    4.6764   -4.7808   11.0459 N   0  0  0  0  0  0  0  0  0  0  0  0
    3.7379   -5.3012   10.0161 C   0  0  0  0  0  0  0  0  0  0  0  0
    2.6135   -4.3397    9.9897 C   0  0  0  0  0  0  0  0  0  0  0  0
    2.6082   -3.2081    9.0414 C   0  0  0  0  0  0  0  0  0  0  0  0
    1.5231   -2.4375    8.9640 O   0  0  0  0  0  0  0  0  0  0  0  0
    1.1473   -1.3912    8.1016 C   0  0  0  0  0  0  0  0  0  0  0  0
    1.7214   -1.2694    6.9017 N   0  0  0  0  0  0  0  0  0  0  0  0
    0.8974    0.2185    6.1596 S   0  0  0  0  0  0  0  0  0  0  0  0
   -0.0943    0.4785    7.5352 N   0  0  0  0  0  0  0  0  0  0  0  0
    0.2096   -0.4904    8.4315 C   0  0  0  0  0  0  0  0  0  0  0  0
   -0.4812   -0.5230    9.7069 N   0  0  0  0  0  0  0  0  0  0  0  0
   -1.5958    0.3675    9.9595 C   0  0  0  0  0  0  0  0  0  0  0  0
   -1.4121    0.9496   11.3294 C   0  0  0  0  0  0  0  0  0  0  0  0
   -1.3043   -0.0129   12.3020 O   0  0  0  0  0  0  0  0  0  0  0  0
   -1.1805   -1.3009   11.8400 C   0  0  0  0  0  0  0  0  0  0  0  0
   -0.0951   -1.4311   10.7668 C   0  0  0  0  0  0  0  0  0  0  0  0
    1.4195   -5.1120    9.8357 O   0  0  0  0  0  0  0  0  0  0  0  0
  1  2  1  0
  2  3  1  0
  2  4  1  0
  2  5  1  0
  5  6  1  0
  6  7  1  0
  7  8  1  0
  8  9  1  0
  9 10  1  0
 10 11  2  0
 11 12  1  0
 12 13  1  0
 13 14  2  0
 14 15  1  0
 15 16  1  0
 16 17  1  0
 17 18  1  0
 18 19  1  0
 19 20  1  0
  7 21  1  0
 14 10  1  0
 20 15  1  0
M  END
$$$$
