
     RDKit          3D

 21 22  0  0  0  0  0  0  0  0999 V2000
   -1.9770   -1.5399   12.9089 C   0  0  0  0  0  0  0  0  0  0  0  0
   -1.2524   -0.3581   12.3286 C   0  0  0  0  0  0  0  0  0  0  0  0
   -1.8654   -0.0813   10.9568 C   0  0  0  0  0  0  0  0  0  0  0  0
   -1.4891    0.8494   13.2083 C   0  0  0  0  0  0  0  0  0  0  0  0
    0.1620   -0.5509   12.2315 N   0  0  0  0  0  0  0  0  0  0  0  0
    0.4704   -1.7299   11.3789 C   0  0  0  0  0  0  0  0  0  0  0  0
    1.9404   -1.8856   11.4433 C   0  0  0  0  0  0  0  0  0  0  0  0
    2.5986   -3.0871   10.8929 C   0  0  0  0  0  0  0  0  0  0  0  0
    3.4072   -2.9542    9.8415 O   0  0  0  0  0  0  0  0  0  0  0  0
    4.3500   -3.8085    9.2403 C   0  0  0  0  0  0  0  0  0  0  0  0
    5.1707   -4.5426    9.9964 N   0  0  0  0  0  0  0  0  0  0  0  0
    6.1893   -5.4866    8.7656 S   0  0  0  0  0  0  0  0  0  0  0  0
    5.3930   -4.7836    7.4184 N   0  0  0  0  0  0  0  0  0  0  0  0
    4.4622   -3.9306    7.9092 C   0  0  0  0  0  0  0  0  0  0  0  0
    3.6250   -3.1838    6.9894 N   0  0  0  0  0  0  0  0  0  0  0  0
    2.7415   -2.1458    7.4806 C   0  0  0  0  0  0  0  0  0  0  0  0
    1.4136   -2.3212    6.8061 C   0  0  0  0  0  0  0  0  0  0  0  0
    1.5095   -2.2966    5.4370 O   0  0  0  0  0  0  0  0  0  0  0  0
    2.7898   -2.3217    4.9392 C   0  0  0  0  0  0  0  0  0  0  0  0
    3.6339   -3.4372    5.5637 C   0  0  0  0  0  0  0  0  0  0  0  0
    2.5016   -0.7085   10.8556 O   0  0  0  0  0  0  0  0  0  0  0  0
  1  2  1  0
  2  3  1  0
  2  4  1  0
  2  5  1  0
  5  6  1  0
  6  7  1  0
  7  8  1  0
  8  9  1  0
  9 10  1  0
 10 11  2  0
 11 12  1  0
 12 13  1  0
 13 14  2  0
 14 15  1  0
 15 16  1  0
 16 17  1  0
 17 18  1  0
 18 19  1  0
 19 20  1  0
  7 21  1  0
 14 10  1  0
 20 15  1  0
M  END
$$$$
