
     RDKit          3D

 21 22  0  0  0  0  0  0  0  0999 V2000
    4.4654   -5.5785    5.6727 C   0  0  0  0  0  0  0  0  0  0  0  0
    5.1401   -4.4404    6.3853 C   0  0  0  0  0  0  0  0  0  0  0  0
    6.4076   -4.9990    7.0301 C   0  0  0  0  0  0  0  0  0  0  0  0
    5.5436   -3.3912    5.3731 C   0  0  0  0  0  0  0  0  0  0  0  0
    4.3051   -3.8040    7.3573 N   0  0  0  0  0  0  0  0  0  0  0  0
    3.0574   -3.3003    6.7235 C   0  0  0  0  0  0  0  0  0  0  0  0
    2.1433   -2.9959    7.8465 C   0  0  0  0  0  0  0  0  0  0  0  0
    2.6676   -2.7650    9.2072 C   0  0  0  0  0  0  0  0  0  0  0  0
    2.1840   -1.7476    9.9199 O   0  0  0  0  0  0  0  0  0  0  0  0
    2.5415   -1.1876   11.1603 C   0  0  0  0  0  0  0  0  0  0  0  0
    3.6992   -1.5184   11.7389 N   0  0  0  0  0  0  0  0  0  0  0  0
    3.7131   -0.5307   13.3099 S   0  0  0  0  0  0  0  0  0  0  0  0
    2.1875    0.1856   12.9898 N   0  0  0  0  0  0  0  0  0  0  0  0
    1.7590   -0.3083   11.8035 C   0  0  0  0  0  0  0  0  0  0  0  0
    0.4805    0.1247   11.2717 N   0  0  0  0  0  0  0  0  0  0  0  0
   -0.4411    0.8758   12.0997 C   0  0  0  0  0  0  0  0  0  0  0  0
   -1.8089    0.2931   11.9026 C   0  0  0  0  0  0  0  0  0  0  0  0
   -2.1981    0.2927   10.5863 O   0  0  0  0  0  0  0  0  0  0  0  0
   -1.2156    0.6253    9.6853 C   0  0  0  0  0  0  0  0  0  0  0  0
    0.0744   -0.1689    9.9131 C   0  0  0  0  0  0  0  0  0  0  0  0
    1.3470   -1.8816    7.4340 O   0  0  0  0  0  0  0  0  0  0  0  0
  1  2  1  0
  2  3  1  0
  2  4  1  0
  2  5  1  0
  5  6  1  0
  6  7  1  0
  7  8  1  0
  8  9  1  0
  9 10  1  0
 10 11  2  0
 11 12  1  0
 12 13  1  0
 13 14  2  0
 14 15  1  0
 15 16  1  0
 16 17  1  0
 17 18  1  0
 18 19  1  0
 19 20  1  0
  7 21  1  0
 14 10  1  0
 20 15  1  0
M  END
$$$$
