
     RDKit          3D

 21 22  0  0  0  0  0  0  0  0999 V2000
    5.4274   -5.6932    7.7534 C   0  0  0  0  0  0  0  0  0  0  0  0
    5.1506   -4.6496    6.7081 C   0  0  0  0  0  0  0  0  0  0  0  0
    6.4307   -3.8342    6.5335 C   0  0  0  0  0  0  0  0  0  0  0  0
    4.8388   -5.3333    5.3953 C   0  0  0  0  0  0  0  0  0  0  0  0
    4.0414   -3.8047    7.0290 N   0  0  0  0  0  0  0  0  0  0  0  0
    4.2622   -3.1273    8.3345 C   0  0  0  0  0  0  0  0  0  0  0  0
    2.9569   -2.5281    8.6902 C   0  0  0  0  0  0  0  0  0  0  0  0
    2.3812   -2.7140   10.0369 C   0  0  0  0  0  0  0  0  0  0  0  0
    1.1960   -2.1691   10.3117 O   0  0  0  0  0  0  0  0  0  0  0  0
    0.5349   -1.8636   11.5157 C   0  0  0  0  0  0  0  0  0  0  0  0
    0.9963   -2.3387   12.6757 N   0  0  0  0  0  0  0  0  0  0  0  0
   -0.1836   -1.6623   13.9382 S   0  0  0  0  0  0  0  0  0  0  0  0
   -1.1272   -0.8432   12.7625 N   0  0  0  0  0  0  0  0  0  0  0  0
   -0.5611   -1.0913   11.5572 C   0  0  0  0  0  0  0  0  0  0  0  0
   -1.1520   -0.5201   10.3616 N   0  0  0  0  0  0  0  0  0  0  0  0
   -0.9152   -1.1249    9.0665 C   0  0  0  0  0  0  0  0  0  0  0  0
   -0.6022   -0.0222    8.0994 C   0  0  0  0  0  0  0  0  0  0  0  0
   -1.5933    0.9255    8.0405 O   0  0  0  0  0  0  0  0  0  0  0  0
   -2.5719    0.8097    8.9979 C   0  0  0  0  0  0  0  0  0  0  0  0
   -1.9904    0.6596   10.4073 C   0  0  0  0  0  0  0  0  0  0  0  0
    3.0520   -1.1334    8.3876 O   0  0  0  0  0  0  0  0  0  0  0  0
  1  2  1  0
  2  3  1  0
  2  4  1  0
  2  5  1  0
  5  6  1  0
  6  7  1  0
  7  8  1  0
  8  9  1  0
  9 10  1  0
 10 11  2  0
 11 12  1  0
 12 13  1  0
 13 14  2  0
 14 15  1  0
 15 16  1  0
 16 17  1  0
 17 18  1  0
 18 19  1  0
 19 20  1  0
  7 21  1  0
 14 10  1  0
 20 15  1  0
M  END
$$$$
