
     RDKit          3D

 21 22  0  0  0  0  0  0  0  0999 V2000
    5.4342   -3.4845    5.3348 C   0  0  0  0  0  0  0  0  0  0  0  0
    4.8054   -4.3045    6.4260 C   0  0  0  0  0  0  0  0  0  0  0  0
    4.5872   -5.7094    5.8667 C   0  0  0  0  0  0  0  0  0  0  0  0
    5.7659   -4.3996    7.5907 C   0  0  0  0  0  0  0  0  0  0  0  0
    3.5820   -3.7506    6.9194 N   0  0  0  0  0  0  0  0  0  0  0  0
    3.8307   -2.9453    8.1448 C   0  0  0  0  0  0  0  0  0  0  0  0
    2.4963   -2.4846    8.5879 C   0  0  0  0  0  0  0  0  0  0  0  0
    2.3606   -1.4857    9.6666 C   0  0  0  0  0  0  0  0  0  0  0  0
    1.1436   -1.1960   10.1270 O   0  0  0  0  0  0  0  0  0  0  0  0
    0.5916   -1.1490   11.4205 C   0  0  0  0  0  0  0  0  0  0  0  0
    1.2918   -1.5944   12.4671 N   0  0  0  0  0  0  0  0  0  0  0  0
    0.1638   -1.3129   13.9135 S   0  0  0  0  0  0  0  0  0  0  0  0
   -1.0806   -0.6448   12.9395 N   0  0  0  0  0  0  0  0  0  0  0  0
   -0.6334   -0.6582   11.6610 C   0  0  0  0  0  0  0  0  0  0  0  0
   -1.4846   -0.1469   10.6033 N   0  0  0  0  0  0  0  0  0  0  0  0
   -2.4071    0.9391   10.8655 C   0  0  0  0  0  0  0  0  0  0  0  0
   -3.7210    0.5824   10.2366 C   0  0  0  0  0  0  0  0  0  0  0  0
   -3.6109    0.3268    8.8924 O   0  0  0  0  0  0  0  0  0  0  0  0
   -2.3250    0.2435    8.4157 C   0  0  0  0  0  0  0  0  0  0  0  0
   -1.4516   -0.6890    9.2609 C   0  0  0  0  0  0  0  0  0  0  0  0
    1.8100   -2.0349    7.4163 O   0  0  0  0  0  0  0  0  0  0  0  0
  1  2  1  0
  2  3  1  0
  2  4  1  0
  2  5  1  0
  5  6  1  0
  6  7  1  0
  7  8  1  0
  8  9  1  0
  9 10  1  0
 10 11  2  0
 11 12  1  0
 12 13  1  0
 13 14  2  0
 14 15  1  0
 15 16  1  0
 16 17  1  0
 17 18  1  0
 18 19  1  0
 19 20  1  0
  7 21  1  0
 14 10  1  0
 20 15  1  0
M  END
$$$$
