
     RDKit          3D

 21 22  0  0  0  0  0  0  0  0999 V2000
    6.1950   -5.7806    5.8148 C   0  0  0  0  0  0  0  0  0  0  0  0
    5.1090   -5.0582    6.5611 C   0  0  0  0  0  0  0  0  0  0  0  0
    4.1192   -4.5332    5.5224 C   0  0  0  0  0  0  0  0  0  0  0  0
    4.3847   -6.0398    7.4555 C   0  0  0  0  0  0  0  0  0  0  0  0
    5.5972   -3.9985    7.3893 N   0  0  0  0  0  0  0  0  0  0  0  0
    4.5245   -3.5083    8.2955 C   0  0  0  0  0  0  0  0  0  0  0  0
    5.1132   -2.3541    9.0101 C   0  0  0  0  0  0  0  0  0  0  0  0
    4.6306   -1.9686   10.3510 C   0  0  0  0  0  0  0  0  0  0  0  0
    3.5243   -1.2313   10.4503 O   0  0  0  0  0  0  0  0  0  0  0  0
    2.6993   -0.8777   11.5339 C   0  0  0  0  0  0  0  0  0  0  0  0
    3.2099   -0.7815   12.7645 N   0  0  0  0  0  0  0  0  0  0  0  0
    1.7605   -0.2891   13.8136 S   0  0  0  0  0  0  0  0  0  0  0  0
    0.6760   -0.2769   12.4843 N   0  0  0  0  0  0  0  0  0  0  0  0
    1.3917   -0.6179   11.3860 C   0  0  0  0  0  0  0  0  0  0  0  0
    0.7282   -0.6907   10.0979 N   0  0  0  0  0  0  0  0  0  0  0  0
   -0.4585    0.0992    9.8391 C   0  0  0  0  0  0  0  0  0  0  0  0
   -1.4582   -0.7897    9.1612 C   0  0  0  0  0  0  0  0  0  0  0  0
   -0.9674   -1.3554    8.0109 O   0  0  0  0  0  0  0  0  0  0  0  0
    0.3784   -1.1774    7.7990 C   0  0  0  0  0  0  0  0  0  0  0  0
    1.2133   -1.5411    9.0309 C   0  0  0  0  0  0  0  0  0  0  0  0
    6.5264   -2.5722    9.0434 O   0  0  0  0  0  0  0  0  0  0  0  0
  1  2  1  0
  2  3  1  0
  2  4  1  0
  2  5  1  0
  5  6  1  0
  6  7  1  0
  7  8  1  0
  8  9  1  0
  9 10  1  0
 10 11  2  0
 11 12  1  0
 12 13  1  0
 13 14  2  0
 14 15  1  0
 15 16  1  0
 16 17  1  0
 17 18  1  0
 18 19  1  0
 19 20  1  0
  7 21  1  0
 14 10  1  0
 20 15  1  0
M  END
$$$$
