
     RDKit          3D

 21 22  0  0  0  0  0  0  0  0999 V2000
   -1.0124   -0.2656   13.0198 C   0  0  0  0  0  0  0  0  0  0  0  0
   -1.6236   -0.2028   11.6484 C   0  0  0  0  0  0  0  0  0  0  0  0
   -2.7699   -1.2123   11.6179 C   0  0  0  0  0  0  0  0  0  0  0  0
   -2.1992    1.1781   11.4249 C   0  0  0  0  0  0  0  0  0  0  0  0
   -0.6866   -0.4553   10.5970 N   0  0  0  0  0  0  0  0  0  0  0  0
   -0.1132   -1.8215   10.7264 C   0  0  0  0  0  0  0  0  0  0  0  0
    0.9409   -1.9032    9.6912 C   0  0  0  0  0  0  0  0  0  0  0  0
    1.7021   -3.1510    9.4835 C   0  0  0  0  0  0  0  0  0  0  0  0
    2.9446   -3.0759    9.0064 O   0  0  0  0  0  0  0  0  0  0  0  0
    4.1785   -3.5817    9.4556 C   0  0  0  0  0  0  0  0  0  0  0  0
    4.5156   -3.4859   10.7445 N   0  0  0  0  0  0  0  0  0  0  0  0
    6.1862   -4.2891   10.8316 S   0  0  0  0  0  0  0  0  0  0  0  0
    6.2133   -4.6429    9.1531 N   0  0  0  0  0  0  0  0  0  0  0  0
    5.0527   -4.1784    8.6315 C   0  0  0  0  0  0  0  0  0  0  0  0
    4.7946   -4.3390    7.2129 N   0  0  0  0  0  0  0  0  0  0  0  0
    5.6660   -5.1610    6.3980 C   0  0  0  0  0  0  0  0  0  0  0  0
    5.9498   -4.4081    5.1324 C   0  0  0  0  0  0  0  0  0  0  0  0
    4.8064   -4.0607    4.4571 O   0  0  0  0  0  0  0  0  0  0  0  0
    3.6342   -4.2759    5.1408 C   0  0  0  0  0  0  0  0  0  0  0  0
    3.6740   -3.6965    6.5584 C   0  0  0  0  0  0  0  0  0  0  0  0
    0.3390   -1.4875    8.4621 O   0  0  0  0  0  0  0  0  0  0  0  0
  1  2  1  0
  2  3  1  0
  2  4  1  0
  2  5  1  0
  5  6  1  0
  6  7  1  0
  7  8  1  0
  8  9  1  0
  9 10  1  0
 10 11  2  0
 11 12  1  0
 12 13  1  0
 13 14  2  0
 14 15  1  0
 15 16  1  0
 16 17  1  0
 17 18  1  0
 18 19  1  0
 19 20  1  0
  7 21  1  0
 14 10  1  0
 20 15  1  0
M  END
$$$$
