
     RDKit          3D

 21 22  0  0  0  0  0  0  0  0999 V2000
    5.6436   -5.1522    5.8680 C   0  0  0  0  0  0  0  0  0  0  0  0
    5.7497   -4.6890    7.2937 C   0  0  0  0  0  0  0  0  0  0  0  0
    6.4282   -5.8075    8.0829 C   0  0  0  0  0  0  0  0  0  0  0  0
    6.6325   -3.4620    7.3519 C   0  0  0  0  0  0  0  0  0  0  0  0
    4.4886   -4.3414    7.8732 N   0  0  0  0  0  0  0  0  0  0  0  0
    4.0920   -2.9650    7.4725 C   0  0  0  0  0  0  0  0  0  0  0  0
    2.8479   -2.6824    8.2219 C   0  0  0  0  0  0  0  0  0  0  0  0
    2.8982   -2.1377    9.5932 C   0  0  0  0  0  0  0  0  0  0  0  0
    1.8405   -1.4758   10.0627 O   0  0  0  0  0  0  0  0  0  0  0  0
    1.4595   -1.0650   11.3534 C   0  0  0  0  0  0  0  0  0  0  0  0
    2.3075   -1.1926   12.3776 N   0  0  0  0  0  0  0  0  0  0  0  0
    1.3657   -0.5154   13.8261 S   0  0  0  0  0  0  0  0  0  0  0  0
   -0.0211   -0.1552   12.8825 N   0  0  0  0  0  0  0  0  0  0  0  0
    0.2567   -0.5299   11.6108 C   0  0  0  0  0  0  0  0  0  0  0  0
   -0.7450   -0.3427   10.5781 N   0  0  0  0  0  0  0  0  0  0  0  0
   -0.7852   -1.2230    9.4281 C   0  0  0  0  0  0  0  0  0  0  0  0
   -0.9663   -0.3701    8.2079 C   0  0  0  0  0  0  0  0  0  0  0  0
   -2.0861    0.4206    8.2779 O   0  0  0  0  0  0  0  0  0  0  0  0
   -2.7113    0.4433    9.5012 C   0  0  0  0  0  0  0  0  0  0  0  0
   -1.7328    0.7138   10.6484 C   0  0  0  0  0  0  0  0  0  0  0  0
    2.0528   -1.8348    7.3882 O   0  0  0  0  0  0  0  0  0  0  0  0
  1  2  1  0
  2  3  1  0
  2  4  1  0
  2  5  1  0
  5  6  1  0
  6  7  1  0
  7  8  1  0
  8  9  1  0
  9 10  1  0
 10 11  2  0
 11 12  1  0
 12 13  1  0
 13 14  2  0
 14 15  1  0
 15 16  1  0
 16 17  1  0
 17 18  1  0
 18 19  1  0
 19 20  1  0
  7 21  1  0
 14 10  1  0
 20 15  1  0
M  END
$$$$
