
     RDKit          3D

 21 22  0  0  0  0  0  0  0  0999 V2000
    8.0345   -5.7852    9.9401 C   0  0  0  0  0  0  0  0  0  0  0  0
    7.0633   -5.0599   10.8285 C   0  0  0  0  0  0  0  0  0  0  0  0
    6.4139   -6.1040   11.7353 C   0  0  0  0  0  0  0  0  0  0  0  0
    7.8218   -4.0808   11.6968 C   0  0  0  0  0  0  0  0  0  0  0  0
    6.0753   -4.3200   10.1049 N   0  0  0  0  0  0  0  0  0  0  0  0
    5.1776   -3.5935   11.0422 C   0  0  0  0  0  0  0  0  0  0  0  0
    4.1384   -2.9757   10.1891 C   0  0  0  0  0  0  0  0  0  0  0  0
    2.7829   -2.7186   10.7145 C   0  0  0  0  0  0  0  0  0  0  0  0
    1.8687   -2.1844    9.9047 O   0  0  0  0  0  0  0  0  0  0  0  0
    0.6595   -1.5035   10.1373 C   0  0  0  0  0  0  0  0  0  0  0  0
    0.2178   -1.3242   11.3852 N   0  0  0  0  0  0  0  0  0  0  0  0
   -1.3683   -0.3856   11.1686 S   0  0  0  0  0  0  0  0  0  0  0  0
   -1.2334   -0.3569    9.4585 N   0  0  0  0  0  0  0  0  0  0  0  0
   -0.0874   -1.0053    9.1406 C   0  0  0  0  0  0  0  0  0  0  0  0
    0.2920   -1.1393    7.7468 N   0  0  0  0  0  0  0  0  0  0  0  0
    0.9751   -2.3305    7.2845 C   0  0  0  0  0  0  0  0  0  0  0  0
    2.1058   -1.8933    6.4016 C   0  0  0  0  0  0  0  0  0  0  0  0
    1.6858   -1.1132    5.3532 O   0  0  0  0  0  0  0  0  0  0  0  0
    0.3731   -0.7118    5.4112 C   0  0  0  0  0  0  0  0  0  0  0  0
    0.0104   -0.1069    6.7712 C   0  0  0  0  0  0  0  0  0  0  0  0
    4.7003   -1.7658    9.6730 O   0  0  0  0  0  0  0  0  0  0  0  0
  1  2  1  0
  2  3  1  0
  2  4  1  0
  2  5  1  0
  5  6  1  0
  6  7  1  0
  7  8  1  0
  8  9  1  0
  9 10  1  0
 10 11  2  0
 11 12  1  0
 12 13  1  0
 13 14  2  0
 14 15  1  0
 15 16  1  0
 16 17  1  0
 17 18  1  0
 18 19  1  0
 19 20  1  0
  7 21  1  0
 14 10  1  0
 20 15  1  0
M  END
$$$$
