
     RDKit          3D

 21 22  0  0  0  0  0  0  0  0999 V2000
    6.0348   -4.7452    7.6531 C   0  0  0  0  0  0  0  0  0  0  0  0
    5.1174   -4.6537    6.4662 C   0  0  0  0  0  0  0  0  0  0  0  0
    5.8140   -3.7815    5.4231 C   0  0  0  0  0  0  0  0  0  0  0  0
    4.9254   -6.0350    5.8804 C   0  0  0  0  0  0  0  0  0  0  0  0
    3.8225   -4.1372    6.7879 N   0  0  0  0  0  0  0  0  0  0  0  0
    3.9165   -2.7097    7.1947 C   0  0  0  0  0  0  0  0  0  0  0  0
    2.6267   -2.4044    7.8524 C   0  0  0  0  0  0  0  0  0  0  0  0
    2.5112   -2.3975    9.3242 C   0  0  0  0  0  0  0  0  0  0  0  0
    1.5076   -1.7255    9.8885 O   0  0  0  0  0  0  0  0  0  0  0  0
    1.3612   -1.0815   11.1310 C   0  0  0  0  0  0  0  0  0  0  0  0
    2.3955   -0.9996   11.9722 N   0  0  0  0  0  0  0  0  0  0  0  0
    1.7162   -0.0719   13.4287 S   0  0  0  0  0  0  0  0  0  0  0  0
    0.1573    0.0824   12.7291 N   0  0  0  0  0  0  0  0  0  0  0  0
    0.2044   -0.5239   11.5188 C   0  0  0  0  0  0  0  0  0  0  0  0
   -0.9852   -0.5510   10.6889 N   0  0  0  0  0  0  0  0  0  0  0  0
   -0.9496   -1.1644    9.3768 C   0  0  0  0  0  0  0  0  0  0  0  0
   -1.6519   -0.2433    8.4242 C   0  0  0  0  0  0  0  0  0  0  0  0
   -2.9371    0.0399    8.8144 O   0  0  0  0  0  0  0  0  0  0  0  0
   -3.2746   -0.3906   10.0748 C   0  0  0  0  0  0  0  0  0  0  0  0
   -2.2404    0.0236   11.1263 C   0  0  0  0  0  0  0  0  0  0  0  0
    2.1842   -1.1522    7.3215 O   0  0  0  0  0  0  0  0  0  0  0  0
  1  2  1  0
  2  3  1  0
  2  4  1  0
  2  5  1  0
  5  6  1  0
  6  7  1  0
  7  8  1  0
  8  9  1  0
  9 10  1  0
 10 11  2  0
 11 12  1  0
 12 13  1  0
 13 14  2  0
 14 15  1  0
 15 16  1  0
 16 17  1  0
 17 18  1  0
 18 19  1  0
 19 20  1  0
  7 21  1  0
 14 10  1  0
 20 15  1  0
M  END
$$$$
