
     RDKit          3D

 21 22  0  0  0  0  0  0  0  0999 V2000
    6.2543   -4.4890    7.6062 C   0  0  0  0  0  0  0  0  0  0  0  0
    5.0745   -4.3579    6.6845 C   0  0  0  0  0  0  0  0  0  0  0  0
    5.5674   -3.6639    5.4157 C   0  0  0  0  0  0  0  0  0  0  0  0
    4.5813   -5.7383    6.3112 C   0  0  0  0  0  0  0  0  0  0  0  0
    3.9758   -3.6494    7.2657 N   0  0  0  0  0  0  0  0  0  0  0  0
    3.8188   -4.0150    8.6988 C   0  0  0  0  0  0  0  0  0  0  0  0
    2.6188   -3.2826    9.1603 C   0  0  0  0  0  0  0  0  0  0  0  0
    2.7170   -1.8829    9.6194 C   0  0  0  0  0  0  0  0  0  0  0  0
    1.7484   -1.3883   10.3904 O   0  0  0  0  0  0  0  0  0  0  0  0
    0.5859   -0.6452   10.1145 C   0  0  0  0  0  0  0  0  0  0  0  0
   -0.0584   -0.8096    8.9560 N   0  0  0  0  0  0  0  0  0  0  0  0
   -1.4972    0.3563    9.0740 S   0  0  0  0  0  0  0  0  0  0  0  0
   -1.0529    0.9034   10.6382 N   0  0  0  0  0  0  0  0  0  0  0  0
    0.0750    0.2384   10.9849 C   0  0  0  0  0  0  0  0  0  0  0  0
    0.6886    0.5001   12.2733 N   0  0  0  0  0  0  0  0  0  0  0  0
   -0.1260    0.8821   13.4089 C   0  0  0  0  0  0  0  0  0  0  0  0
    0.5565    2.0285   14.0938 C   0  0  0  0  0  0  0  0  0  0  0  0
    1.8414    1.7282   14.4722 O   0  0  0  0  0  0  0  0  0  0  0  0
    2.3311    0.5388   13.9894 C   0  0  0  0  0  0  0  0  0  0  0  0
    2.1180    0.3933   12.4793 C   0  0  0  0  0  0  0  0  0  0  0  0
    1.6495   -3.3868    8.1137 O   0  0  0  0  0  0  0  0  0  0  0  0
  1  2  1  0
  2  3  1  0
  2  4  1  0
  2  5  1  0
  5  6  1  0
  6  7  1  0
  7  8  1  0
  8  9  1  0
  9 10  1  0
 10 11  2  0
 11 12  1  0
 12 13  1  0
 13 14  2  0
 14 15  1  0
 15 16  1  0
 16 17  1  0
 17 18  1  0
 18 19  1  0
 19 20  1  0
  7 21  1  0
 14 10  1  0
 20 15  1  0
M  END
$$$$
