
     RDKit          3D

 21 22  0  0  0  0  0  0  0  0999 V2000
   -0.0945   -0.1123   14.6939 C   0  0  0  0  0  0  0  0  0  0  0  0
   -0.3880    0.5303   13.3676 C   0  0  0  0  0  0  0  0  0  0  0  0
   -1.6148   -0.1713   12.7872 C   0  0  0  0  0  0  0  0  0  0  0  0
   -0.7322    1.9868   13.5877 C   0  0  0  0  0  0  0  0  0  0  0  0
    0.7136    0.4800   12.4560 N   0  0  0  0  0  0  0  0  0  0  0  0
    1.3116   -0.8817   12.4351 C   0  0  0  0  0  0  0  0  0  0  0  0
    2.4027   -0.8147   11.4379 C   0  0  0  0  0  0  0  0  0  0  0  0
    3.3296   -1.9489   11.2536 C   0  0  0  0  0  0  0  0  0  0  0  0
    3.6373   -2.3349   10.0153 O   0  0  0  0  0  0  0  0  0  0  0  0
    4.4937   -3.3268    9.5029 C   0  0  0  0  0  0  0  0  0  0  0  0
    5.3007   -4.0071   10.3216 N   0  0  0  0  0  0  0  0  0  0  0  0
    6.1972   -5.1785    9.1957 S   0  0  0  0  0  0  0  0  0  0  0  0
    5.3845   -4.6110    7.7954 N   0  0  0  0  0  0  0  0  0  0  0  0
    4.5347   -3.6362    8.1983 C   0  0  0  0  0  0  0  0  0  0  0  0
    3.7043   -2.9645    7.2165 N   0  0  0  0  0  0  0  0  0  0  0  0
    2.7400   -1.9663    7.6321 C   0  0  0  0  0  0  0  0  0  0  0  0
    1.4599   -2.2367    6.8990 C   0  0  0  0  0  0  0  0  0  0  0  0
    1.6235   -2.2440    5.5361 O   0  0  0  0  0  0  0  0  0  0  0  0
    2.9268   -2.2086    5.1026 C   0  0  0  0  0  0  0  0  0  0  0  0
    3.7997   -3.2559    5.8012 C   0  0  0  0  0  0  0  0  0  0  0  0
    1.7941   -0.4731   10.1894 O   0  0  0  0  0  0  0  0  0  0  0  0
  1  2  1  0
  2  3  1  0
  2  4  1  0
  2  5  1  0
  5  6  1  0
  6  7  1  0
  7  8  1  0
  8  9  1  0
  9 10  1  0
 10 11  2  0
 11 12  1  0
 12 13  1  0
 13 14  2  0
 14 15  1  0
 15 16  1  0
 16 17  1  0
 17 18  1  0
 18 19  1  0
 19 20  1  0
  7 21  1  0
 14 10  1  0
 20 15  1  0
M  END
$$$$
