
     RDKit          3D

 21 22  0  0  0  0  0  0  0  0999 V2000
    4.8936   -5.7307    5.5455 C   0  0  0  0  0  0  0  0  0  0  0  0
    5.0385   -4.9828    6.8408 C   0  0  0  0  0  0  0  0  0  0  0  0
    5.1637   -6.0238    7.9520 C   0  0  0  0  0  0  0  0  0  0  0  0
    6.3136   -4.1699    6.8040 C   0  0  0  0  0  0  0  0  0  0  0  0
    3.9586   -4.0805    7.0995 N   0  0  0  0  0  0  0  0  0  0  0  0
    4.1313   -3.4264    8.4240 C   0  0  0  0  0  0  0  0  0  0  0  0
    2.8627   -2.7068    8.6735 C   0  0  0  0  0  0  0  0  0  0  0  0
    2.0490   -3.0007    9.8698 C   0  0  0  0  0  0  0  0  0  0  0  0
    1.0866   -2.1473   10.2198 O   0  0  0  0  0  0  0  0  0  0  0  0
    0.4609   -1.8550   11.4458 C   0  0  0  0  0  0  0  0  0  0  0  0
    0.9407   -2.3636   12.5840 N   0  0  0  0  0  0  0  0  0  0  0  0
   -0.1949   -1.6916   13.8888 S   0  0  0  0  0  0  0  0  0  0  0  0
   -1.1501   -0.8295   12.7540 N   0  0  0  0  0  0  0  0  0  0  0  0
   -0.6183   -1.0627   11.5303 C   0  0  0  0  0  0  0  0  0  0  0  0
   -1.2264   -0.4548   10.3617 N   0  0  0  0  0  0  0  0  0  0  0  0
   -1.8379    0.8556   10.4518 C   0  0  0  0  0  0  0  0  0  0  0  0
   -3.1534    0.7945    9.7344 C   0  0  0  0  0  0  0  0  0  0  0  0
   -3.0251    0.3858    8.4303 O   0  0  0  0  0  0  0  0  0  0  0  0
   -1.7799   -0.0788    8.0821 C   0  0  0  0  0  0  0  0  0  0  0  0
   -1.2494   -1.1182    9.0747 C   0  0  0  0  0  0  0  0  0  0  0  0
    3.1684   -1.3105    8.6213 O   0  0  0  0  0  0  0  0  0  0  0  0
  1  2  1  0
  2  3  1  0
  2  4  1  0
  2  5  1  0
  5  6  1  0
  6  7  1  0
  7  8  1  0
  8  9  1  0
  9 10  1  0
 10 11  2  0
 11 12  1  0
 12 13  1  0
 13 14  2  0
 14 15  1  0
 15 16  1  0
 16 17  1  0
 17 18  1  0
 18 19  1  0
 19 20  1  0
  7 21  1  0
 14 10  1  0
 20 15  1  0
M  END
$$$$
