
     RDKit          3D

 21 22  0  0  0  0  0  0  0  0999 V2000
   -1.9538   -1.4224   12.0015 C   0  0  0  0  0  0  0  0  0  0  0  0
   -1.2134   -0.1786   11.5975 C   0  0  0  0  0  0  0  0  0  0  0  0
   -2.1787    0.6754   10.7771 C   0  0  0  0  0  0  0  0  0  0  0  0
   -0.8303    0.5956   12.8393 C   0  0  0  0  0  0  0  0  0  0  0  0
   -0.0123   -0.4446   10.8669 N   0  0  0  0  0  0  0  0  0  0  0  0
   -0.2496   -1.4902    9.8361 C   0  0  0  0  0  0  0  0  0  0  0  0
    1.0634   -1.7072    9.1894 C   0  0  0  0  0  0  0  0  0  0  0  0
    2.1326   -2.4548    9.8805 C   0  0  0  0  0  0  0  0  0  0  0  0
    3.0651   -3.0677    9.1512 O   0  0  0  0  0  0  0  0  0  0  0  0
    4.2156   -3.8055    9.4859 C   0  0  0  0  0  0  0  0  0  0  0  0
    4.5066   -4.0537   10.7657 N   0  0  0  0  0  0  0  0  0  0  0  0
    6.0731   -5.0453   10.6848 S   0  0  0  0  0  0  0  0  0  0  0  0
    6.1316   -4.9978    8.9708 N   0  0  0  0  0  0  0  0  0  0  0  0
    5.0524   -4.2915    8.5570 C   0  0  0  0  0  0  0  0  0  0  0  0
    4.8381   -4.0849    7.1371 N   0  0  0  0  0  0  0  0  0  0  0  0
    4.0078   -2.9921    6.6727 C   0  0  0  0  0  0  0  0  0  0  0  0
    3.1040   -3.5294    5.6034 C   0  0  0  0  0  0  0  0  0  0  0  0
    3.7959   -4.1119    4.5708 O   0  0  0  0  0  0  0  0  0  0  0  0
    5.1421   -4.2791    4.7889 C   0  0  0  0  0  0  0  0  0  0  0  0
    5.4335   -4.9462    6.1369 C   0  0  0  0  0  0  0  0  0  0  0  0
    0.7978   -2.3000    7.9151 O   0  0  0  0  0  0  0  0  0  0  0  0
  1  2  1  0
  2  3  1  0
  2  4  1  0
  2  5  1  0
  5  6  1  0
  6  7  1  0
  7  8  1  0
  8  9  1  0
  9 10  1  0
 10 11  2  0
 11 12  1  0
 12 13  1  0
 13 14  2  0
 14 15  1  0
 15 16  1  0
 16 17  1  0
 17 18  1  0
 18 19  1  0
 19 20  1  0
  7 21  1  0
 14 10  1  0
 20 15  1  0
M  END
$$$$
