
     RDKit          3D

 21 22  0  0  0  0  0  0  0  0999 V2000
   -2.5218    0.8337   10.1643 C   0  0  0  0  0  0  0  0  0  0  0  0
   -1.8781   -0.3942   10.7445 C   0  0  0  0  0  0  0  0  0  0  0  0
   -1.5122   -0.0712   12.1922 C   0  0  0  0  0  0  0  0  0  0  0  0
   -2.8821   -1.5255   10.7481 C   0  0  0  0  0  0  0  0  0  0  0  0
   -0.7326   -0.8359   10.0097 N   0  0  0  0  0  0  0  0  0  0  0  0
    0.1456   -1.6753   10.8678 C   0  0  0  0  0  0  0  0  0  0  0  0
    1.3643   -1.9155   10.0638 C   0  0  0  0  0  0  0  0  0  0  0  0
    2.0325   -3.2319   10.0780 C   0  0  0  0  0  0  0  0  0  0  0  0
    3.1210   -3.4100    9.3292 O   0  0  0  0  0  0  0  0  0  0  0  0
    4.3993   -3.9316    9.6008 C   0  0  0  0  0  0  0  0  0  0  0  0
    4.8271   -4.0412   10.8615 N   0  0  0  0  0  0  0  0  0  0  0  0
    6.5231   -4.7759   10.6969 S   0  0  0  0  0  0  0  0  0  0  0  0
    6.4377   -4.8389    8.9845 N   0  0  0  0  0  0  0  0  0  0  0  0
    5.2284   -4.3425    8.6297 C   0  0  0  0  0  0  0  0  0  0  0  0
    4.8718   -4.2715    7.2252 N   0  0  0  0  0  0  0  0  0  0  0  0
    3.9073   -3.2943    6.7625 C   0  0  0  0  0  0  0  0  0  0  0  0
    2.9659   -3.9917    5.8263 C   0  0  0  0  0  0  0  0  0  0  0  0
    3.6146   -4.5961    4.7784 O   0  0  0  0  0  0  0  0  0  0  0  0
    4.9844   -4.6306    4.8794 C   0  0  0  0  0  0  0  0  0  0  0  0
    5.4533   -5.1583    6.2391 C   0  0  0  0  0  0  0  0  0  0  0  0
    1.0466   -1.5431    8.7199 O   0  0  0  0  0  0  0  0  0  0  0  0
  1  2  1  0
  2  3  1  0
  2  4  1  0
  2  5  1  0
  5  6  1  0
  6  7  1  0
  7  8  1  0
  8  9  1  0
  9 10  1  0
 10 11  2  0
 11 12  1  0
 12 13  1  0
 13 14  2  0
 14 15  1  0
 15 16  1  0
 16 17  1  0
 17 18  1  0
 18 19  1  0
 19 20  1  0
  7 21  1  0
 14 10  1  0
 20 15  1  0
M  END
$$$$
