
     RDKit          3D

 21 22  0  0  0  0  0  0  0  0999 V2000
   -0.5512    1.4083   11.5242 C   0  0  0  0  0  0  0  0  0  0  0  0
   -0.4172   -0.0173   11.0680 C   0  0  0  0  0  0  0  0  0  0  0  0
    0.4756   -0.7335   12.0799 C   0  0  0  0  0  0  0  0  0  0  0  0
   -1.7798   -0.6738   11.0866 C   0  0  0  0  0  0  0  0  0  0  0  0
    0.1043   -0.1424    9.7415 N   0  0  0  0  0  0  0  0  0  0  0  0
    0.7266   -1.4796    9.5497 C   0  0  0  0  0  0  0  0  0  0  0  0
    1.1471   -1.5157    8.1315 C   0  0  0  0  0  0  0  0  0  0  0  0
    2.5549   -1.7692    7.7662 C   0  0  0  0  0  0  0  0  0  0  0  0
    3.0438   -3.0019    7.9018 O   0  0  0  0  0  0  0  0  0  0  0  0
    4.0054   -3.7384    7.1857 C   0  0  0  0  0  0  0  0  0  0  0  0
    3.8233   -3.9999    5.8885 N   0  0  0  0  0  0  0  0  0  0  0  0
    5.3355   -4.9626    5.4089 S   0  0  0  0  0  0  0  0  0  0  0  0
    6.0040   -4.8893    6.9872 N   0  0  0  0  0  0  0  0  0  0  0  0
    5.1301   -4.1961    7.7557 C   0  0  0  0  0  0  0  0  0  0  0  0
    5.4348   -3.9731    9.1565 N   0  0  0  0  0  0  0  0  0  0  0  0
    4.3698   -3.7313   10.1086 C   0  0  0  0  0  0  0  0  0  0  0  0
    4.7881   -2.5830   10.9779 C   0  0  0  0  0  0  0  0  0  0  0  0
    5.9871   -2.8069   11.6075 O   0  0  0  0  0  0  0  0  0  0  0  0
    6.6719   -3.9202   11.1840 C   0  0  0  0  0  0  0  0  0  0  0  0
    6.7932   -3.9818    9.6581 C   0  0  0  0  0  0  0  0  0  0  0  0
    0.2948   -2.4598    7.4771 O   0  0  0  0  0  0  0  0  0  0  0  0
  1  2  1  0
  2  3  1  0
  2  4  1  0
  2  5  1  0
  5  6  1  0
  6  7  1  0
  7  8  1  0
  8  9  1  0
  9 10  1  0
 10 11  2  0
 11 12  1  0
 12 13  1  0
 13 14  2  0
 14 15  1  0
 15 16  1  0
 16 17  1  0
 17 18  1  0
 18 19  1  0
 19 20  1  0
  7 21  1  0
 14 10  1  0
 20 15  1  0
M  END
$$$$
