
     RDKit          3D

 21 22  0  0  0  0  0  0  0  0999 V2000
    5.9947   -3.7779   11.4527 C   0  0  0  0  0  0  0  0  0  0  0  0
    6.2303   -4.6864   10.2790 C   0  0  0  0  0  0  0  0  0  0  0  0
    7.5576   -4.2718    9.6461 C   0  0  0  0  0  0  0  0  0  0  0  0
    6.3623   -6.1101   10.7727 C   0  0  0  0  0  0  0  0  0  0  0  0
    5.1706   -4.6591    9.3180 N   0  0  0  0  0  0  0  0  0  0  0  0
    5.4618   -3.6674    8.2485 C   0  0  0  0  0  0  0  0  0  0  0  0
    4.2058   -3.5451    7.4758 C   0  0  0  0  0  0  0  0  0  0  0  0
    3.5792   -2.2268    7.2544 C   0  0  0  0  0  0  0  0  0  0  0  0
    2.3260   -2.0320    7.6651 O   0  0  0  0  0  0  0  0  0  0  0  0
    1.2703   -1.2356    7.1844 C   0  0  0  0  0  0  0  0  0  0  0  0
    1.0527   -1.1284    5.8708 N   0  0  0  0  0  0  0  0  0  0  0  0
   -0.4207   -0.0068    5.7507 S   0  0  0  0  0  0  0  0  0  0  0  0
   -0.5501    0.1689    7.4524 N   0  0  0  0  0  0  0  0  0  0  0  0
    0.4446   -0.5671    8.0034 C   0  0  0  0  0  0  0  0  0  0  0  0
    0.5843   -0.6086    9.4469 N   0  0  0  0  0  0  0  0  0  0  0  0
    1.7181   -1.2752   10.0545 C   0  0  0  0  0  0  0  0  0  0  0  0
    1.2018   -2.1082   11.1897 C   0  0  0  0  0  0  0  0  0  0  0  0
    0.4980   -1.3703   12.1086 O   0  0  0  0  0  0  0  0  0  0  0  0
    0.2227   -0.0774   11.7340 C   0  0  0  0  0  0  0  0  0  0  0  0
   -0.3860    0.0035   10.3305 C   0  0  0  0  0  0  0  0  0  0  0  0
    4.4331   -4.1950    6.2221 O   0  0  0  0  0  0  0  0  0  0  0  0
  1  2  1  0
  2  3  1  0
  2  4  1  0
  2  5  1  0
  5  6  1  0
  6  7  1  0
  7  8  1  0
  8  9  1  0
  9 10  1  0
 10 11  2  0
 11 12  1  0
 12 13  1  0
 13 14  2  0
 14 15  1  0
 15 16  1  0
 16 17  1  0
 17 18  1  0
 18 19  1  0
 19 20  1  0
  7 21  1  0
 14 10  1  0
 20 15  1  0
M  END
$$$$
