
     RDKit          3D

 21 22  0  0  0  0  0  0  0  0999 V2000
   -2.8519   -1.3579   11.6758 C   0  0  0  0  0  0  0  0  0  0  0  0
   -1.6732   -0.5187   11.2699 C   0  0  0  0  0  0  0  0  0  0  0  0
   -2.2202    0.7000   10.5284 C   0  0  0  0  0  0  0  0  0  0  0  0
   -0.9557   -0.0379   12.5117 C   0  0  0  0  0  0  0  0  0  0  0  0
   -0.7221   -1.2255   10.4680 N   0  0  0  0  0  0  0  0  0  0  0  0
    0.4032   -0.3318   10.0844 C   0  0  0  0  0  0  0  0  0  0  0  0
    1.3391   -1.1868    9.3211 C   0  0  0  0  0  0  0  0  0  0  0  0
    2.1676   -2.1995   10.0049 C   0  0  0  0  0  0  0  0  0  0  0  0
    2.9333   -3.0075    9.2715 O   0  0  0  0  0  0  0  0  0  0  0  0
    4.1846   -3.6107    9.4961 C   0  0  0  0  0  0  0  0  0  0  0  0
    4.6745   -3.7022   10.7354 N   0  0  0  0  0  0  0  0  0  0  0  0
    6.3018   -4.5654   10.5114 S   0  0  0  0  0  0  0  0  0  0  0  0
    6.1149   -4.6887    8.8104 N   0  0  0  0  0  0  0  0  0  0  0  0
    4.9258   -4.1190    8.5003 C   0  0  0  0  0  0  0  0  0  0  0  0
    4.4959   -4.0768    7.1153 N   0  0  0  0  0  0  0  0  0  0  0  0
    5.0204   -5.0273    6.1559 C   0  0  0  0  0  0  0  0  0  0  0  0
    5.3773   -4.2691    4.9121 C   0  0  0  0  0  0  0  0  0  0  0  0
    4.3153   -3.5673    4.3986 O   0  0  0  0  0  0  0  0  0  0  0  0
    3.2022   -3.5183    5.2025 C   0  0  0  0  0  0  0  0  0  0  0  0
    3.5398   -3.1000    6.6370 C   0  0  0  0  0  0  0  0  0  0  0  0
    0.5739   -1.8025    8.2813 O   0  0  0  0  0  0  0  0  0  0  0  0
  1  2  1  0
  2  3  1  0
  2  4  1  0
  2  5  1  0
  5  6  1  0
  6  7  1  0
  7  8  1  0
  8  9  1  0
  9 10  1  0
 10 11  2  0
 11 12  1  0
 12 13  1  0
 13 14  2  0
 14 15  1  0
 15 16  1  0
 16 17  1  0
 17 18  1  0
 18 19  1  0
 19 20  1  0
  7 21  1  0
 14 10  1  0
 20 15  1  0
M  END
$$$$
