
     RDKit          3D

 21 22  0  0  0  0  0  0  0  0999 V2000
    4.4238   -5.9021    4.9570 C   0  0  0  0  0  0  0  0  0  0  0  0
    4.7984   -4.7166    5.8012 C   0  0  0  0  0  0  0  0  0  0  0  0
    5.7566   -5.2159    6.8814 C   0  0  0  0  0  0  0  0  0  0  0  0
    5.5313   -3.7090    4.9435 C   0  0  0  0  0  0  0  0  0  0  0  0
    3.6709   -4.0524    6.3797 N   0  0  0  0  0  0  0  0  0  0  0  0
    4.1141   -2.9059    7.2171 C   0  0  0  0  0  0  0  0  0  0  0  0
    2.9382   -2.5442    8.0392 C   0  0  0  0  0  0  0  0  0  0  0  0
    3.0547   -1.5613    9.1346 C   0  0  0  0  0  0  0  0  0  0  0  0
    2.0227   -1.3929    9.9615 O   0  0  0  0  0  0  0  0  0  0  0  0
    1.7915   -1.7666   11.2982 C   0  0  0  0  0  0  0  0  0  0  0  0
    2.6655   -2.5475   11.9390 N   0  0  0  0  0  0  0  0  0  0  0  0
    1.9358   -2.7394   13.6344 S   0  0  0  0  0  0  0  0  0  0  0  0
    0.5745   -1.7619   13.2672 N   0  0  0  0  0  0  0  0  0  0  0  0
    0.7111   -1.3594   11.9811 C   0  0  0  0  0  0  0  0  0  0  0  0
   -0.3048   -0.5097   11.3889 N   0  0  0  0  0  0  0  0  0  0  0  0
   -1.1819    0.2790   12.2301 C   0  0  0  0  0  0  0  0  0  0  0  0
   -2.5773    0.1270   11.7020 C   0  0  0  0  0  0  0  0  0  0  0  0
   -2.6845    0.4881   10.3820 O   0  0  0  0  0  0  0  0  0  0  0  0
   -1.4923    0.7214    9.7401 C   0  0  0  0  0  0  0  0  0  0  0  0
   -0.4853   -0.4128    9.9554 C   0  0  0  0  0  0  0  0  0  0  0  0
    1.9116   -2.1415    7.1283 O   0  0  0  0  0  0  0  0  0  0  0  0
  1  2  1  0
  2  3  1  0
  2  4  1  0
  2  5  1  0
  5  6  1  0
  6  7  1  0
  7  8  1  0
  8  9  1  0
  9 10  1  0
 10 11  2  0
 11 12  1  0
 12 13  1  0
 13 14  2  0
 14 15  1  0
 15 16  1  0
 16 17  1  0
 17 18  1  0
 18 19  1  0
 19 20  1  0
  7 21  1  0
 14 10  1  0
 20 15  1  0
M  END
$$$$
