
     RDKit          3D

 21 22  0  0  0  0  0  0  0  0999 V2000
    4.1364   -4.9564    5.5552 C   0  0  0  0  0  0  0  0  0  0  0  0
    5.2643   -4.8971    6.5465 C   0  0  0  0  0  0  0  0  0  0  0  0
    5.2791   -6.2293    7.2942 C   0  0  0  0  0  0  0  0  0  0  0  0
    6.5727   -4.7550    5.8009 C   0  0  0  0  0  0  0  0  0  0  0  0
    5.1638   -3.7970    7.4558 N   0  0  0  0  0  0  0  0  0  0  0  0
    4.2306   -4.1225    8.5672 C   0  0  0  0  0  0  0  0  0  0  0  0
    4.0804   -2.8653    9.3329 C   0  0  0  0  0  0  0  0  0  0  0  0
    3.1743   -2.7918   10.4962 C   0  0  0  0  0  0  0  0  0  0  0  0
    2.0656   -2.0574   10.4039 O   0  0  0  0  0  0  0  0  0  0  0  0
    1.1018   -1.6501   11.3447 C   0  0  0  0  0  0  0  0  0  0  0  0
    1.2907   -1.8851   12.6459 N   0  0  0  0  0  0  0  0  0  0  0  0
   -0.2163   -1.1651   13.4547 S   0  0  0  0  0  0  0  0  0  0  0  0
   -0.8922   -0.6509   11.9641 N   0  0  0  0  0  0  0  0  0  0  0  0
   -0.0241   -1.0132   10.9895 C   0  0  0  0  0  0  0  0  0  0  0  0
   -0.3362   -0.7044    9.6067 N   0  0  0  0  0  0  0  0  0  0  0  0
    0.3219   -1.4168    8.5303 C   0  0  0  0  0  0  0  0  0  0  0  0
    0.7394   -0.4062    7.5038 C   0  0  0  0  0  0  0  0  0  0  0  0
   -0.3135    0.3444    7.0431 O   0  0  0  0  0  0  0  0  0  0  0  0
   -1.4921    0.1841    7.7309 C   0  0  0  0  0  0  0  0  0  0  0  0
   -1.3024    0.3119    9.2457 C   0  0  0  0  0  0  0  0  0  0  0  0
    5.3980   -2.4592    9.7133 O   0  0  0  0  0  0  0  0  0  0  0  0
  1  2  1  0
  2  3  1  0
  2  4  1  0
  2  5  1  0
  5  6  1  0
  6  7  1  0
  7  8  1  0
  8  9  1  0
  9 10  1  0
 10 11  2  0
 11 12  1  0
 12 13  1  0
 13 14  2  0
 14 15  1  0
 15 16  1  0
 16 17  1  0
 17 18  1  0
 18 19  1  0
 19 20  1  0
  7 21  1  0
 14 10  1  0
 20 15  1  0
M  END
$$$$
