
     RDKit          3D

 21 22  0  0  0  0  0  0  0  0999 V2000
    3.2933   -5.5600    6.1134 C   0  0  0  0  0  0  0  0  0  0  0  0
    4.7370   -5.1478    6.0468 C   0  0  0  0  0  0  0  0  0  0  0  0
    5.5637   -6.3066    6.6017 C   0  0  0  0  0  0  0  0  0  0  0  0
    5.1256   -4.9353    4.6005 C   0  0  0  0  0  0  0  0  0  0  0  0
    5.0139   -3.9336    6.7512 N   0  0  0  0  0  0  0  0  0  0  0  0
    4.5862   -4.0453    8.1713 C   0  0  0  0  0  0  0  0  0  0  0  0
    4.8583   -2.7186    8.7674 C   0  0  0  0  0  0  0  0  0  0  0  0
    4.2653   -2.3361   10.0642 C   0  0  0  0  0  0  0  0  0  0  0  0
    2.9421   -2.4026   10.2123 O   0  0  0  0  0  0  0  0  0  0  0  0
    2.0976   -2.3561   11.3368 C   0  0  0  0  0  0  0  0  0  0  0  0
    2.5422   -2.7624   12.5291 N   0  0  0  0  0  0  0  0  0  0  0  0
    1.0950   -2.4991   13.6604 S   0  0  0  0  0  0  0  0  0  0  0  0
    0.0981   -1.8879   12.4050 N   0  0  0  0  0  0  0  0  0  0  0  0
    0.8364   -1.9042   11.2695 C   0  0  0  0  0  0  0  0  0  0  0  0
    0.2460   -1.4375   10.0292 N   0  0  0  0  0  0  0  0  0  0  0  0
    0.9446   -1.6155    8.7724 C   0  0  0  0  0  0  0  0  0  0  0  0
    0.8494   -0.3264    8.0119 C   0  0  0  0  0  0  0  0  0  0  0  0
   -0.4481    0.0763    7.8157 O   0  0  0  0  0  0  0  0  0  0  0  0
   -1.3946   -0.6412    8.5065 C   0  0  0  0  0  0  0  0  0  0  0  0
   -1.0457   -0.7839    9.9913 C   0  0  0  0  0  0  0  0  0  0  0  0
    6.2808   -2.5788    8.8202 O   0  0  0  0  0  0  0  0  0  0  0  0
  1  2  1  0
  2  3  1  0
  2  4  1  0
  2  5  1  0
  5  6  1  0
  6  7  1  0
  7  8  1  0
  8  9  1  0
  9 10  1  0
 10 11  2  0
 11 12  1  0
 12 13  1  0
 13 14  2  0
 14 15  1  0
 15 16  1  0
 16 17  1  0
 17 18  1  0
 18 19  1  0
 19 20  1  0
  7 21  1  0
 14 10  1  0
 20 15  1  0
M  END
$$$$
