
     RDKit          3D

 21 22  0  0  0  0  0  0  0  0999 V2000
    6.3756   -4.2916    6.7361 C   0  0  0  0  0  0  0  0  0  0  0  0
    4.8935   -4.5056    6.8625 C   0  0  0  0  0  0  0  0  0  0  0  0
    4.3767   -4.9132    5.4837 C   0  0  0  0  0  0  0  0  0  0  0  0
    4.6373   -5.6456    7.8231 C   0  0  0  0  0  0  0  0  0  0  0  0
    4.1943   -3.3592    7.3565 N   0  0  0  0  0  0  0  0  0  0  0  0
    2.7308   -3.6205    7.4021 C   0  0  0  0  0  0  0  0  0  0  0  0
    2.1477   -2.4585    8.1086 C   0  0  0  0  0  0  0  0  0  0  0  0
    1.7314   -2.5630    9.5212 C   0  0  0  0  0  0  0  0  0  0  0  0
    1.3810   -1.4544   10.1733 O   0  0  0  0  0  0  0  0  0  0  0  0
    0.2088   -1.0666   10.8482 C   0  0  0  0  0  0  0  0  0  0  0  0
   -0.9882   -1.4340   10.3828 N   0  0  0  0  0  0  0  0  0  0  0  0
   -2.1851   -0.7045   11.5989 S   0  0  0  0  0  0  0  0  0  0  0  0
   -0.9421   -0.0126   12.5578 N   0  0  0  0  0  0  0  0  0  0  0  0
    0.2359   -0.3328   11.9708 C   0  0  0  0  0  0  0  0  0  0  0  0
    1.4768    0.1234   12.5683 N   0  0  0  0  0  0  0  0  0  0  0  0
    1.5144    0.5316   13.9579 C   0  0  0  0  0  0  0  0  0  0  0  0
    2.2976    1.8081   14.0365 C   0  0  0  0  0  0  0  0  0  0  0  0
    3.5601    1.6861   13.5118 O   0  0  0  0  0  0  0  0  0  0  0  0
    3.8045    0.5120   12.8414 C   0  0  0  0  0  0  0  0  0  0  0  0
    2.7125    0.1904   11.8163 C   0  0  0  0  0  0  0  0  0  0  0  0
    3.0720   -1.3786    7.9501 O   0  0  0  0  0  0  0  0  0  0  0  0
  1  2  1  0
  2  3  1  0
  2  4  1  0
  2  5  1  0
  5  6  1  0
  6  7  1  0
  7  8  1  0
  8  9  1  0
  9 10  1  0
 10 11  2  0
 11 12  1  0
 12 13  1  0
 13 14  2  0
 14 15  1  0
 15 16  1  0
 16 17  1  0
 17 18  1  0
 18 19  1  0
 19 20  1  0
  7 21  1  0
 14 10  1  0
 20 15  1  0
M  END
$$$$
