
     RDKit          3D

 21 22  0  0  0  0  0  0  0  0999 V2000
    5.1042   -5.6167    7.6344 C   0  0  0  0  0  0  0  0  0  0  0  0
    4.6892   -4.6580    6.5541 C   0  0  0  0  0  0  0  0  0  0  0  0
    5.8940   -3.7683    6.2523 C   0  0  0  0  0  0  0  0  0  0  0  0
    4.3480   -5.4378    5.3036 C   0  0  0  0  0  0  0  0  0  0  0  0
    3.5435   -3.8739    6.9000 N   0  0  0  0  0  0  0  0  0  0  0  0
    3.7229   -3.2505    8.2384 C   0  0  0  0  0  0  0  0  0  0  0  0
    2.4006   -2.6856    8.5874 C   0  0  0  0  0  0  0  0  0  0  0  0
    1.9259   -2.6794    9.9854 C   0  0  0  0  0  0  0  0  0  0  0  0
    1.0244   -1.7698   10.3556 O   0  0  0  0  0  0  0  0  0  0  0  0
    0.5771   -1.3154   11.6100 C   0  0  0  0  0  0  0  0  0  0  0  0
    1.2774   -1.5904   12.7137 N   0  0  0  0  0  0  0  0  0  0  0  0
    0.3061   -0.7832   14.0733 S   0  0  0  0  0  0  0  0  0  0  0  0
   -0.8939   -0.1914   12.9994 N   0  0  0  0  0  0  0  0  0  0  0  0
   -0.5442   -0.5935   11.7541 C   0  0  0  0  0  0  0  0  0  0  0  0
   -1.3846   -0.2344   10.6274 N   0  0  0  0  0  0  0  0  0  0  0  0
   -2.1897    0.9695   10.6679 C   0  0  0  0  0  0  0  0  0  0  0  0
   -3.5552    0.6216   10.1545 C   0  0  0  0  0  0  0  0  0  0  0  0
   -3.5229    0.0780    8.8946 O   0  0  0  0  0  0  0  0  0  0  0  0
   -2.2704   -0.2329    8.4229 C   0  0  0  0  0  0  0  0  0  0  0  0
   -1.4559   -1.0486    9.4319 C   0  0  0  0  0  0  0  0  0  0  0  0
    2.3704   -1.3584    8.0551 O   0  0  0  0  0  0  0  0  0  0  0  0
  1  2  1  0
  2  3  1  0
  2  4  1  0
  2  5  1  0
  5  6  1  0
  6  7  1  0
  7  8  1  0
  8  9  1  0
  9 10  1  0
 10 11  2  0
 11 12  1  0
 12 13  1  0
 13 14  2  0
 14 15  1  0
 15 16  1  0
 16 17  1  0
 17 18  1  0
 18 19  1  0
 19 20  1  0
  7 21  1  0
 14 10  1  0
 20 15  1  0
M  END
$$$$
