
     RDKit          3D

 21 22  0  0  0  0  0  0  0  0999 V2000
   -2.8103   -1.2230   10.3080 C   0  0  0  0  0  0  0  0  0  0  0  0
   -1.7698   -0.2960   10.8706 C   0  0  0  0  0  0  0  0  0  0  0  0
   -1.8886    1.0274   10.1165 C   0  0  0  0  0  0  0  0  0  0  0  0
   -2.0708   -0.0407   12.3308 C   0  0  0  0  0  0  0  0  0  0  0  0
   -0.4402   -0.8181   10.7887 N   0  0  0  0  0  0  0  0  0  0  0  0
   -0.0678   -1.0770    9.3722 C   0  0  0  0  0  0  0  0  0  0  0  0
    1.3125   -1.6078    9.4212 C   0  0  0  0  0  0  0  0  0  0  0  0
    1.8380   -2.4506    8.3288 C   0  0  0  0  0  0  0  0  0  0  0  0
    3.0937   -2.8918    8.4026 O   0  0  0  0  0  0  0  0  0  0  0  0
    3.8898   -3.6726    7.5444 C   0  0  0  0  0  0  0  0  0  0  0  0
    3.4818   -3.9321    6.2992 N   0  0  0  0  0  0  0  0  0  0  0  0
    4.8504   -4.9615    5.5845 S   0  0  0  0  0  0  0  0  0  0  0  0
    5.7767   -4.9099    7.0277 N   0  0  0  0  0  0  0  0  0  0  0  0
    5.0740   -4.1759    7.9234 C   0  0  0  0  0  0  0  0  0  0  0  0
    5.6186   -3.9598    9.2507 N   0  0  0  0  0  0  0  0  0  0  0  0
    4.7384   -3.8679   10.3978 C   0  0  0  0  0  0  0  0  0  0  0  0
    5.1927   -2.7048   11.2284 C   0  0  0  0  0  0  0  0  0  0  0  0
    6.5077   -2.8087   11.6080 O   0  0  0  0  0  0  0  0  0  0  0  0
    7.2119   -3.8244   11.0077 C   0  0  0  0  0  0  0  0  0  0  0  0
    7.0415   -3.8283    9.4853 C   0  0  0  0  0  0  0  0  0  0  0  0
    2.1741   -0.4855    9.6304 O   0  0  0  0  0  0  0  0  0  0  0  0
  1  2  1  0
  2  3  1  0
  2  4  1  0
  2  5  1  0
  5  6  1  0
  6  7  1  0
  7  8  1  0
  8  9  1  0
  9 10  1  0
 10 11  2  0
 11 12  1  0
 12 13  1  0
 13 14  2  0
 14 15  1  0
 15 16  1  0
 16 17  1  0
 17 18  1  0
 18 19  1  0
 19 20  1  0
  7 21  1  0
 14 10  1  0
 20 15  1  0
M  END
$$$$
