
     RDKit          3D

 24 27  0  0  0  0  0  0  0  0999 V2000
   -1.1456   -4.5432    8.8947 C   0  0  0  0  0  0  0  0  0  0  0  0
   -1.3761   -3.1439    8.6154 N   0  0  0  0  0  0  0  0  0  0  0  0
   -2.6868   -2.9273    8.0985 C   0  0  0  0  0  0  0  0  0  0  0  0
   -2.5454   -2.5466    6.6452 C   0  0  0  0  0  0  0  0  0  0  0  0
   -1.9115   -1.2517    6.6636 N   0  0  0  0  0  0  0  0  0  0  0  0
   -0.6503   -1.2629    7.1654 C   0  0  0  0  0  0  0  0  0  0  0  0
   -0.3150   -2.4648    8.0203 C   0  0  0  0  0  0  0  0  0  0  0  0
   -2.8443   -0.2639    6.5935 C   0  0  0  0  0  0  0  0  0  0  0  0
   -2.3664    1.1838    6.4471 C   0  0  0  0  0  0  0  0  0  0  0  0
   -3.0649    1.8992    5.3479 C   0  0  0  0  0  0  0  0  0  0  0  0
   -2.1918    2.7595    4.7214 C   0  0  0  0  0  0  0  0  0  0  0  0
   -2.5847    3.5584    3.6484 C   0  0  0  0  0  0  0  0  0  0  0  0
   -3.8860    3.4808    3.2060 C   0  0  0  0  0  0  0  0  0  0  0  0
   -4.7755    2.6315    3.8131 C   0  0  0  0  0  0  0  0  0  0  0  0
   -4.3568    1.8527    4.8738 C   0  0  0  0  0  0  0  0  0  0  0  0
   -5.7524    0.8477    5.4561 S   0  0  0  0  0  0  0  0  0  0  0  0
   -5.2725    0.2467    7.1140 C   0  0  0  0  0  0  0  0  0  0  0  0
   -4.0030   -0.1859    7.4966 C   0  0  0  0  0  0  0  0  0  0  0  0
   -3.7658   -0.5740    8.7871 C   0  0  0  0  0  0  0  0  0  0  0  0
   -4.8304   -0.5232    9.6920 C   0  0  0  0  0  0  0  0  0  0  0  0
   -6.0783   -0.0949    9.2964 C   0  0  0  0  0  0  0  0  0  0  0  0
   -6.3193    0.2979    7.9983 C   0  0  0  0  0  0  0  0  0  0  0  0
   -4.5987   -1.0141   11.3896 S   0  0  0  0  0  0  0  0  0  0  0  0
   -3.9457   -2.6983   11.4617 C   0  0  0  0  0  0  0  0  0  0  0  0
  1  2  1  0
  2  3  1  0
  3  4  1  0
  4  5  1  0
  5  6  1  0
  6  7  1  0
  5  8  1  0
  8  9  1  0
  9 10  1  0
 10 11  2  0
 11 12  1  0
 12 13  2  0
 13 14  1  0
 14 15  2  0
 15 16  1  0
 16 17  1  0
 17 18  2  0
 18 19  1  0
 19 20  2  0
 20 21  1  0
 21 22  2  0
 20 23  1  0
 23 24  1  0
  7  2  1  0
 18  8  1  0
 15 10  1  0
 22 17  1  0
M  END
$$$$
