
     RDKit          3D

 24 27  0  0  0  0  0  0  0  0999 V2000
   -1.3999   -5.6477    8.8660 C   0  0  0  0  0  0  0  0  0  0  0  0
   -2.3454   -4.5789    8.6356 N   0  0  0  0  0  0  0  0  0  0  0  0
   -1.7727   -3.5420    7.8426 C   0  0  0  0  0  0  0  0  0  0  0  0
   -1.5872   -2.3380    8.7333 C   0  0  0  0  0  0  0  0  0  0  0  0
   -2.9254   -1.9007    9.0449 N   0  0  0  0  0  0  0  0  0  0  0  0
   -3.6402   -2.7932    9.7766 C   0  0  0  0  0  0  0  0  0  0  0  0
   -3.1220   -4.2135    9.7331 C   0  0  0  0  0  0  0  0  0  0  0  0
   -3.3172   -0.9192    8.1883 C   0  0  0  0  0  0  0  0  0  0  0  0
   -2.3194    0.1898    7.8416 C   0  0  0  0  0  0  0  0  0  0  0  0
   -2.2145    0.4154    6.3767 C   0  0  0  0  0  0  0  0  0  0  0  0
   -0.9150    0.7241    6.0435 C   0  0  0  0  0  0  0  0  0  0  0  0
   -0.5316    0.9833    4.7283 C   0  0  0  0  0  0  0  0  0  0  0  0
   -1.4849    0.9275    3.7368 C   0  0  0  0  0  0  0  0  0  0  0  0
   -2.7866    0.6221    4.0426 C   0  0  0  0  0  0  0  0  0  0  0  0
   -3.1360    0.3702    5.3546 C   0  0  0  0  0  0  0  0  0  0  0  0
   -4.9124    0.0028    5.4329 S   0  0  0  0  0  0  0  0  0  0  0  0
   -5.3766    0.1737    7.1923 C   0  0  0  0  0  0  0  0  0  0  0  0
   -4.6164   -0.2361    8.2873 C   0  0  0  0  0  0  0  0  0  0  0  0
   -5.0630   -0.0110    9.5609 C   0  0  0  0  0  0  0  0  0  0  0  0
   -6.2937    0.6335    9.7185 C   0  0  0  0  0  0  0  0  0  0  0  0
   -7.0323    1.0301    8.6256 C   0  0  0  0  0  0  0  0  0  0  0  0
   -6.5842    0.8061    7.3424 C   0  0  0  0  0  0  0  0  0  0  0  0
   -6.9417    0.9602   11.3464 S   0  0  0  0  0  0  0  0  0  0  0  0
   -8.5209    1.8308   11.2191 C   0  0  0  0  0  0  0  0  0  0  0  0
  1  2  1  0
  2  3  1  0
  3  4  1  0
  4  5  1  0
  5  6  1  0
  6  7  1  0
  5  8  1  0
  8  9  1  0
  9 10  1  0
 10 11  2  0
 11 12  1  0
 12 13  2  0
 13 14  1  0
 14 15  2  0
 15 16  1  0
 16 17  1  0
 17 18  2  0
 18 19  1  0
 19 20  2  0
 20 21  1  0
 21 22  2  0
 20 23  1  0
 23 24  1  0
  7  2  1  0
 18  8  1  0
 15 10  1  0
 22 17  1  0
M  END
$$$$
