
     RDKit          3D

 24 27  0  0  0  0  0  0  0  0999 V2000
   -1.7224   -4.4068    9.9177 C   0  0  0  0  0  0  0  0  0  0  0  0
   -2.2083   -3.0539    9.7665 N   0  0  0  0  0  0  0  0  0  0  0  0
   -3.1434   -2.9555    8.6951 C   0  0  0  0  0  0  0  0  0  0  0  0
   -2.4840   -2.1729    7.5861 C   0  0  0  0  0  0  0  0  0  0  0  0
   -2.3451   -0.8369    8.1103 N   0  0  0  0  0  0  0  0  0  0  0  0
   -1.5061   -0.7467    9.1736 C   0  0  0  0  0  0  0  0  0  0  0  0
   -1.2500   -2.0508    9.8958 C   0  0  0  0  0  0  0  0  0  0  0  0
   -3.3934   -0.0617    7.7219 C   0  0  0  0  0  0  0  0  0  0  0  0
   -4.8108   -0.6243    7.8641 C   0  0  0  0  0  0  0  0  0  0  0  0
   -5.7287    0.3264    8.5436 C   0  0  0  0  0  0  0  0  0  0  0  0
   -6.6118   -0.3661    9.3410 C   0  0  0  0  0  0  0  0  0  0  0  0
   -7.5873    0.2816   10.0978 C   0  0  0  0  0  0  0  0  0  0  0  0
   -7.6655    1.6549   10.0425 C   0  0  0  0  0  0  0  0  0  0  0  0
   -6.7975    2.3680    9.2558 C   0  0  0  0  0  0  0  0  0  0  0  0
   -5.8418    1.6983    8.5175 C   0  0  0  0  0  0  0  0  0  0  0  0
   -4.8582    2.9087    7.5876 S   0  0  0  0  0  0  0  0  0  0  0  0
   -3.9843    1.9517    6.2990 C   0  0  0  0  0  0  0  0  0  0  0  0
   -3.4139    0.6889    6.4568 C   0  0  0  0  0  0  0  0  0  0  0  0
   -2.8216    0.0613    5.3950 C   0  0  0  0  0  0  0  0  0  0  0  0
   -2.8085    0.7269    4.1655 C   0  0  0  0  0  0  0  0  0  0  0  0
   -3.3752    1.9748    4.0280 C   0  0  0  0  0  0  0  0  0  0  0  0
   -3.9736    2.6080    5.0949 C   0  0  0  0  0  0  0  0  0  0  0  0
   -2.0542   -0.0263    2.7371 S   0  0  0  0  0  0  0  0  0  0  0  0
   -0.5735    0.8959    2.2624 C   0  0  0  0  0  0  0  0  0  0  0  0
  1  2  1  0
  2  3  1  0
  3  4  1  0
  4  5  1  0
  5  6  1  0
  6  7  1  0
  5  8  1  0
  8  9  1  0
  9 10  1  0
 10 11  2  0
 11 12  1  0
 12 13  2  0
 13 14  1  0
 14 15  2  0
 15 16  1  0
 16 17  1  0
 17 18  2  0
 18 19  1  0
 19 20  2  0
 20 21  1  0
 21 22  2  0
 20 23  1  0
 23 24  1  0
  7  2  1  0
 18  8  1  0
 15 10  1  0
 22 17  1  0
M  END
$$$$
