
     RDKit          3D

 24 27  0  0  0  0  0  0  0  0999 V2000
   -3.2018   -4.6153   11.6529 C   0  0  0  0  0  0  0  0  0  0  0  0
   -3.1330   -3.2654   11.1406 N   0  0  0  0  0  0  0  0  0  0  0  0
   -4.0450   -3.0729   10.0621 C   0  0  0  0  0  0  0  0  0  0  0  0
   -3.2316   -2.9221    8.8000 C   0  0  0  0  0  0  0  0  0  0  0  0
   -2.5380   -1.6678    8.9565 N   0  0  0  0  0  0  0  0  0  0  0  0
   -1.6413   -1.6576    9.9756 C   0  0  0  0  0  0  0  0  0  0  0  0
   -1.8522   -2.7302   11.0209 C   0  0  0  0  0  0  0  0  0  0  0  0
   -3.2306   -0.6625    8.3561 C   0  0  0  0  0  0  0  0  0  0  0  0
   -4.7597   -0.7449    8.3256 C   0  0  0  0  0  0  0  0  0  0  0  0
   -5.4010    0.5146    8.7839 C   0  0  0  0  0  0  0  0  0  0  0  0
   -6.5470    0.2254    9.4896 C   0  0  0  0  0  0  0  0  0  0  0  0
   -7.3483    1.2256   10.0386 C   0  0  0  0  0  0  0  0  0  0  0  0
   -6.9779    2.5403    9.8671 C   0  0  0  0  0  0  0  0  0  0  0  0
   -5.8406    2.8549    9.1680 C   0  0  0  0  0  0  0  0  0  0  0  0
   -5.0672    1.8422    8.6359 C   0  0  0  0  0  0  0  0  0  0  0  0
   -3.6460    2.5742    7.7750 S   0  0  0  0  0  0  0  0  0  0  0  0
   -2.9754    1.2488    6.7102 C   0  0  0  0  0  0  0  0  0  0  0  0
   -2.8600   -0.0992    7.0486 C   0  0  0  0  0  0  0  0  0  0  0  0
   -2.3763   -1.0002    6.1396 C   0  0  0  0  0  0  0  0  0  0  0  0
   -2.0055   -0.5230    4.8788 C   0  0  0  0  0  0  0  0  0  0  0  0
   -2.1245    0.8121    4.5621 C   0  0  0  0  0  0  0  0  0  0  0  0
   -2.6127    1.7210    5.4749 C   0  0  0  0  0  0  0  0  0  0  0  0
   -1.3658   -1.6362    3.6427 S   0  0  0  0  0  0  0  0  0  0  0  0
   -0.2818   -0.7404    2.5066 C   0  0  0  0  0  0  0  0  0  0  0  0
  1  2  1  0
  2  3  1  0
  3  4  1  0
  4  5  1  0
  5  6  1  0
  6  7  1  0
  5  8  1  0
  8  9  1  0
  9 10  1  0
 10 11  2  0
 11 12  1  0
 12 13  2  0
 13 14  1  0
 14 15  2  0
 15 16  1  0
 16 17  1  0
 17 18  2  0
 18 19  1  0
 19 20  2  0
 20 21  1  0
 21 22  2  0
 20 23  1  0
 23 24  1  0
  7  2  1  0
 18  8  1  0
 15 10  1  0
 22 17  1  0
M  END
$$$$
