
     RDKit          3D

 24 27  0  0  0  0  0  0  0  0999 V2000
    1.0281   -2.7483    7.4250 C   0  0  0  0  0  0  0  0  0  0  0  0
    0.0412   -1.8314    7.9492 N   0  0  0  0  0  0  0  0  0  0  0  0
   -1.1871   -1.9260    7.2320 C   0  0  0  0  0  0  0  0  0  0  0  0
   -1.3475   -0.6546    6.4350 C   0  0  0  0  0  0  0  0  0  0  0  0
   -1.5477    0.3765    7.4228 N   0  0  0  0  0  0  0  0  0  0  0  0
   -0.4760    0.5812    8.2304 C   0  0  0  0  0  0  0  0  0  0  0  0
    0.5122   -0.5627    8.2803 C   0  0  0  0  0  0  0  0  0  0  0  0
   -2.8758    0.6011    7.6142 C   0  0  0  0  0  0  0  0  0  0  0  0
   -3.7903   -0.5997    7.8737 C   0  0  0  0  0  0  0  0  0  0  0  0
   -4.6660   -0.3955    9.0567 C   0  0  0  0  0  0  0  0  0  0  0  0
   -4.8305   -1.5865    9.7272 C   0  0  0  0  0  0  0  0  0  0  0  0
   -5.6074   -1.6831   10.8809 C   0  0  0  0  0  0  0  0  0  0  0  0
   -6.2264   -0.5506   11.3598 C   0  0  0  0  0  0  0  0  0  0  0  0
   -6.0783    0.6482   10.7101 C   0  0  0  0  0  0  0  0  0  0  0  0
   -5.3025    0.7124    9.5695 C   0  0  0  0  0  0  0  0  0  0  0  0
   -5.3055    2.4186    8.9482 S   0  0  0  0  0  0  0  0  0  0  0  0
   -4.6986    2.3201    7.2272 C   0  0  0  0  0  0  0  0  0  0  0  0
   -3.6707    1.4999    6.7629 C   0  0  0  0  0  0  0  0  0  0  0  0
   -3.3400    1.4919    5.4352 C   0  0  0  0  0  0  0  0  0  0  0  0
   -4.0602    2.3277    4.5764 C   0  0  0  0  0  0  0  0  0  0  0  0
   -5.0714    3.1327    5.0524 C   0  0  0  0  0  0  0  0  0  0  0  0
   -5.4074    3.1414    6.3883 C   0  0  0  0  0  0  0  0  0  0  0  0
   -3.6862    2.3730    2.8344 S   0  0  0  0  0  0  0  0  0  0  0  0
   -2.8461    3.9200    2.4233 C   0  0  0  0  0  0  0  0  0  0  0  0
  1  2  1  0
  2  3  1  0
  3  4  1  0
  4  5  1  0
  5  6  1  0
  6  7  1  0
  5  8  1  0
  8  9  1  0
  9 10  1  0
 10 11  2  0
 11 12  1  0
 12 13  2  0
 13 14  1  0
 14 15  2  0
 15 16  1  0
 16 17  1  0
 17 18  2  0
 18 19  1  0
 19 20  2  0
 20 21  1  0
 21 22  2  0
 20 23  1  0
 23 24  1  0
  7  2  1  0
 18  8  1  0
 15 10  1  0
 22 17  1  0
M  END
$$$$
