
     RDKit          3D

 24 27  0  0  0  0  0  0  0  0999 V2000
   -2.4685   -5.0713   10.4921 C   0  0  0  0  0  0  0  0  0  0  0  0
   -2.9394   -3.7077   10.4023 N   0  0  0  0  0  0  0  0  0  0  0  0
   -3.4896   -3.4327    9.1164 C   0  0  0  0  0  0  0  0  0  0  0  0
   -2.5469   -2.4891    8.4107 C   0  0  0  0  0  0  0  0  0  0  0  0
   -2.6397   -1.2545    9.1498 N   0  0  0  0  0  0  0  0  0  0  0  0
   -2.1862   -1.3414   10.4264 C   0  0  0  0  0  0  0  0  0  0  0  0
   -2.1162   -2.7457   10.9838 C   0  0  0  0  0  0  0  0  0  0  0  0
   -3.5432   -0.4190    8.5698 C   0  0  0  0  0  0  0  0  0  0  0  0
   -4.9865   -0.9041    8.4047 C   0  0  0  0  0  0  0  0  0  0  0  0
   -5.9746    0.0889    8.9000 C   0  0  0  0  0  0  0  0  0  0  0  0
   -7.0384   -0.5616    9.4832 C   0  0  0  0  0  0  0  0  0  0  0  0
   -8.1147    0.1314   10.0359 C   0  0  0  0  0  0  0  0  0  0  0  0
   -8.1085    1.5074    9.9944 C   0  0  0  0  0  0  0  0  0  0  0  0
   -7.0605    2.1793    9.4189 C   0  0  0  0  0  0  0  0  0  0  0  0
   -6.0086    1.4652    8.8798 C   0  0  0  0  0  0  0  0  0  0  0  0
   -4.7924    2.6286    8.1984 S   0  0  0  0  0  0  0  0  0  0  0  0
   -3.7213    1.6376    7.0981 C   0  0  0  0  0  0  0  0  0  0  0  0
   -3.2622    0.3438    7.3437 C   0  0  0  0  0  0  0  0  0  0  0  0
   -2.4960   -0.3050    6.4141 C   0  0  0  0  0  0  0  0  0  0  0  0
   -2.1941    0.3709    5.2280 C   0  0  0  0  0  0  0  0  0  0  0  0
   -2.6545    1.6493    5.0026 C   0  0  0  0  0  0  0  0  0  0  0  0
   -3.4273    2.3041    5.9362 C   0  0  0  0  0  0  0  0  0  0  0  0
   -1.2002   -0.4087    3.9705 S   0  0  0  0  0  0  0  0  0  0  0  0
   -0.0776   -1.6075    4.7259 C   0  0  0  0  0  0  0  0  0  0  0  0
  1  2  1  0
  2  3  1  0
  3  4  1  0
  4  5  1  0
  5  6  1  0
  6  7  1  0
  5  8  1  0
  8  9  1  0
  9 10  1  0
 10 11  2  0
 11 12  1  0
 12 13  2  0
 13 14  1  0
 14 15  2  0
 15 16  1  0
 16 17  1  0
 17 18  2  0
 18 19  1  0
 19 20  2  0
 20 21  1  0
 21 22  2  0
 20 23  1  0
 23 24  1  0
  7  2  1  0
 18  8  1  0
 15 10  1  0
 22 17  1  0
M  END
$$$$
