
     RDKit          3D

 24 27  0  0  0  0  0  0  0  0999 V2000
   -7.0645   -2.2129   10.8003 C   0  0  0  0  0  0  0  0  0  0  0  0
   -6.4530   -1.6388    9.6232 N   0  0  0  0  0  0  0  0  0  0  0  0
   -5.0327   -1.7509    9.6696 C   0  0  0  0  0  0  0  0  0  0  0  0
   -4.4731   -0.3634    9.8673 C   0  0  0  0  0  0  0  0  0  0  0  0
   -4.7723    0.3326    8.6404 N   0  0  0  0  0  0  0  0  0  0  0  0
   -6.0998    0.5003    8.4119 C   0  0  0  0  0  0  0  0  0  0  0  0
   -7.0027   -0.4366    9.1831 C   0  0  0  0  0  0  0  0  0  0  0  0
   -3.7120    0.2755    7.7899 C   0  0  0  0  0  0  0  0  0  0  0  0
   -2.3194    0.6067    8.3344 C   0  0  0  0  0  0  0  0  0  0  0  0
   -1.3127   -0.4240    7.9710 C   0  0  0  0  0  0  0  0  0  0  0  0
   -0.4178   -0.5877    9.0042 C   0  0  0  0  0  0  0  0  0  0  0  0
    0.6356   -1.4981    8.9313 C   0  0  0  0  0  0  0  0  0  0  0  0
    0.7809   -2.2536    7.7898 C   0  0  0  0  0  0  0  0  0  0  0  0
   -0.0973   -2.1094    6.7462 C   0  0  0  0  0  0  0  0  0  0  0  0
   -1.1309   -1.1993    6.8478 C   0  0  0  0  0  0  0  0  0  0  0  0
   -2.1076   -1.2411    5.3177 S   0  0  0  0  0  0  0  0  0  0  0  0
   -3.1093    0.2874    5.3273 C   0  0  0  0  0  0  0  0  0  0  0  0
   -3.7329    0.8554    6.4380 C   0  0  0  0  0  0  0  0  0  0  0  0
   -4.4227    2.0308    6.3165 C   0  0  0  0  0  0  0  0  0  0  0  0
   -4.4791    2.6291    5.0541 C   0  0  0  0  0  0  0  0  0  0  0  0
   -3.8587    2.0533    3.9675 C   0  0  0  0  0  0  0  0  0  0  0  0
   -3.1622    0.8708    4.0874 C   0  0  0  0  0  0  0  0  0  0  0  0
   -5.3600    4.1603    4.8173 S   0  0  0  0  0  0  0  0  0  0  0  0
   -4.2831    5.3757    4.0228 C   0  0  0  0  0  0  0  0  0  0  0  0
  1  2  1  0
  2  3  1  0
  3  4  1  0
  4  5  1  0
  5  6  1  0
  6  7  1  0
  5  8  1  0
  8  9  1  0
  9 10  1  0
 10 11  2  0
 11 12  1  0
 12 13  2  0
 13 14  1  0
 14 15  2  0
 15 16  1  0
 16 17  1  0
 17 18  2  0
 18 19  1  0
 19 20  2  0
 20 21  1  0
 21 22  2  0
 20 23  1  0
 23 24  1  0
  7  2  1  0
 18  8  1  0
 15 10  1  0
 22 17  1  0
M  END
$$$$
