
     RDKit          3D

 24 27  0  0  0  0  0  0  0  0999 V2000
   -1.6481   -5.6064    9.3059 C   0  0  0  0  0  0  0  0  0  0  0  0
   -2.5302   -4.4746    9.1326 N   0  0  0  0  0  0  0  0  0  0  0  0
   -2.0345   -3.5776    8.1418 C   0  0  0  0  0  0  0  0  0  0  0  0
   -1.5882   -2.3211    8.8482 C   0  0  0  0  0  0  0  0  0  0  0  0
   -2.8043   -1.7256    9.3439 N   0  0  0  0  0  0  0  0  0  0  0  0
   -3.4390   -2.4708   10.2844 C   0  0  0  0  0  0  0  0  0  0  0  0
   -3.0549   -3.9336   10.3044 C   0  0  0  0  0  0  0  0  0  0  0  0
   -3.2690   -0.7933    8.4690 C   0  0  0  0  0  0  0  0  0  0  0  0
   -2.3328    0.3421    8.0448 C   0  0  0  0  0  0  0  0  0  0  0  0
   -2.2922    0.5175    6.5698 C   0  0  0  0  0  0  0  0  0  0  0  0
   -1.0204    0.8667    6.1757 C   0  0  0  0  0  0  0  0  0  0  0  0
   -0.6977    1.0926    4.8382 C   0  0  0  0  0  0  0  0  0  0  0  0
   -1.6842    0.9611    3.8872 C   0  0  0  0  0  0  0  0  0  0  0  0
   -2.9594    0.6142    4.2539 C   0  0  0  0  0  0  0  0  0  0  0  0
   -3.2486    0.3969    5.5866 C   0  0  0  0  0  0  0  0  0  0  0  0
   -5.0037   -0.0399    5.7469 S   0  0  0  0  0  0  0  0  0  0  0  0
   -5.4086    0.1768    7.5158 C   0  0  0  0  0  0  0  0  0  0  0  0
   -4.5914   -0.1608    8.5943 C   0  0  0  0  0  0  0  0  0  0  0  0
   -4.9992    0.0927    9.8755 C   0  0  0  0  0  0  0  0  0  0  0  0
   -6.2493    0.6917   10.0579 C   0  0  0  0  0  0  0  0  0  0  0  0
   -7.0444    1.0170    8.9812 C   0  0  0  0  0  0  0  0  0  0  0  0
   -6.6354    0.7642    7.6903 C   0  0  0  0  0  0  0  0  0  0  0  0
   -6.8493    1.0515   11.6972 S   0  0  0  0  0  0  0  0  0  0  0  0
   -8.5835    1.5567   11.6229 C   0  0  0  0  0  0  0  0  0  0  0  0
  1  2  1  0
  2  3  1  0
  3  4  1  0
  4  5  1  0
  5  6  1  0
  6  7  1  0
  5  8  1  0
  8  9  1  0
  9 10  1  0
 10 11  2  0
 11 12  1  0
 12 13  2  0
 13 14  1  0
 14 15  2  0
 15 16  1  0
 16 17  1  0
 17 18  2  0
 18 19  1  0
 19 20  2  0
 20 21  1  0
 21 22  2  0
 20 23  1  0
 23 24  1  0
  7  2  1  0
 18  8  1  0
 15 10  1  0
 22 17  1  0
M  END
$$$$
