
     RDKit          3D

 24 27  0  0  0  0  0  0  0  0999 V2000
   -0.2131   -3.4897    8.9092 C   0  0  0  0  0  0  0  0  0  0  0  0
   -1.0227   -2.2999    9.0433 N   0  0  0  0  0  0  0  0  0  0  0  0
   -2.1164   -2.3111    8.1292 C   0  0  0  0  0  0  0  0  0  0  0  0
   -1.8503   -1.2513    7.0885 C   0  0  0  0  0  0  0  0  0  0  0  0
   -1.9474   -0.0020    7.8018 N   0  0  0  0  0  0  0  0  0  0  0  0
   -0.9916    0.1661    8.7510 C   0  0  0  0  0  0  0  0  0  0  0  0
   -0.3206   -1.1084    9.2126 C   0  0  0  0  0  0  0  0  0  0  0  0
   -3.1981    0.5196    7.6807 C   0  0  0  0  0  0  0  0  0  0  0  0
   -4.3975   -0.4284    7.7725 C   0  0  0  0  0  0  0  0  0  0  0  0
   -5.4322    0.0622    8.7193 C   0  0  0  0  0  0  0  0  0  0  0  0
   -6.0034   -1.0020    9.3797 C   0  0  0  0  0  0  0  0  0  0  0  0
   -7.0070   -0.8277   10.3316 C   0  0  0  0  0  0  0  0  0  0  0  0
   -7.4362    0.4490   10.6160 C   0  0  0  0  0  0  0  0  0  0  0  0
   -6.8833    1.5262    9.9719 C   0  0  0  0  0  0  0  0  0  0  0  0
   -5.8907    1.3218    9.0338 C   0  0  0  0  0  0  0  0  0  0  0  0
   -5.3708    2.9275    8.3643 S   0  0  0  0  0  0  0  0  0  0  0  0
   -4.4537    2.5507    6.8290 C   0  0  0  0  0  0  0  0  0  0  0  0
   -3.5675    1.4907    6.6392 C   0  0  0  0  0  0  0  0  0  0  0  0
   -2.9750    1.2958    5.4214 C   0  0  0  0  0  0  0  0  0  0  0  0
   -3.2863    2.1889    4.3917 C   0  0  0  0  0  0  0  0  0  0  0  0
   -4.1626    3.2315    4.5972 C   0  0  0  0  0  0  0  0  0  0  0  0
   -4.7617    3.4290    5.8219 C   0  0  0  0  0  0  0  0  0  0  0  0
   -2.5530    2.0002    2.7782 S   0  0  0  0  0  0  0  0  0  0  0  0
   -3.6482    2.6926    1.5175 C   0  0  0  0  0  0  0  0  0  0  0  0
  1  2  1  0
  2  3  1  0
  3  4  1  0
  4  5  1  0
  5  6  1  0
  6  7  1  0
  5  8  1  0
  8  9  1  0
  9 10  1  0
 10 11  2  0
 11 12  1  0
 12 13  2  0
 13 14  1  0
 14 15  2  0
 15 16  1  0
 16 17  1  0
 17 18  2  0
 18 19  1  0
 19 20  2  0
 20 21  1  0
 21 22  2  0
 20 23  1  0
 23 24  1  0
  7  2  1  0
 18  8  1  0
 15 10  1  0
 22 17  1  0
M  END
$$$$
