
     RDKit          3D

 24 27  0  0  0  0  0  0  0  0999 V2000
    0.2872   -3.2945    8.7307 C   0  0  0  0  0  0  0  0  0  0  0  0
   -1.0324   -2.7353    8.5427 N   0  0  0  0  0  0  0  0  0  0  0  0
   -0.9776   -1.5099    7.8165 C   0  0  0  0  0  0  0  0  0  0  0  0
   -1.3293   -0.3977    8.7739 C   0  0  0  0  0  0  0  0  0  0  0  0
   -2.7212   -0.6071    9.0865 N   0  0  0  0  0  0  0  0  0  0  0  0
   -2.9675   -1.7615    9.7570 C   0  0  0  0  0  0  0  0  0  0  0  0
   -1.8810   -2.8077    9.6454 C   0  0  0  0  0  0  0  0  0  0  0  0
   -3.5101    0.1507    8.2777 C   0  0  0  0  0  0  0  0  0  0  0  0
   -4.9857   -0.2319    8.1289 C   0  0  0  0  0  0  0  0  0  0  0  0
   -5.8913    0.9295    8.3260 C   0  0  0  0  0  0  0  0  0  0  0  0
   -7.0397    0.5229    8.9671 C   0  0  0  0  0  0  0  0  0  0  0  0
   -8.0653    1.4138    9.2805 C   0  0  0  0  0  0  0  0  0  0  0  0
   -7.9204    2.7388    8.9364 C   0  0  0  0  0  0  0  0  0  0  0  0
   -6.7860    3.1693    8.2971 C   0  0  0  0  0  0  0  0  0  0  0  0
   -5.7872    2.2631    7.9998 C   0  0  0  0  0  0  0  0  0  0  0  0
   -4.4320    3.1319    7.1600 S   0  0  0  0  0  0  0  0  0  0  0  0
   -3.4165    1.8283    6.3792 C   0  0  0  0  0  0  0  0  0  0  0  0
   -3.0999    0.5888    6.9346 C   0  0  0  0  0  0  0  0  0  0  0  0
   -2.3612   -0.3176    6.2241 C   0  0  0  0  0  0  0  0  0  0  0  0
   -1.9405    0.0434    4.9405 C   0  0  0  0  0  0  0  0  0  0  0  0
   -2.2609    1.2727    4.4082 C   0  0  0  0  0  0  0  0  0  0  0  0
   -3.0058    2.1864    5.1208 C   0  0  0  0  0  0  0  0  0  0  0  0
   -0.9738   -1.0839    3.9550 S   0  0  0  0  0  0  0  0  0  0  0  0
   -1.4104   -0.9087    2.2095 C   0  0  0  0  0  0  0  0  0  0  0  0
  1  2  1  0
  2  3  1  0
  3  4  1  0
  4  5  1  0
  5  6  1  0
  6  7  1  0
  5  8  1  0
  8  9  1  0
  9 10  1  0
 10 11  2  0
 11 12  1  0
 12 13  2  0
 13 14  1  0
 14 15  2  0
 15 16  1  0
 16 17  1  0
 17 18  2  0
 18 19  1  0
 19 20  2  0
 20 21  1  0
 21 22  2  0
 20 23  1  0
 23 24  1  0
  7  2  1  0
 18  8  1  0
 15 10  1  0
 22 17  1  0
M  END
$$$$
