
     RDKit          3D

 24 27  0  0  0  0  0  0  0  0999 V2000
   -0.8856   -3.7388    9.1706 C   0  0  0  0  0  0  0  0  0  0  0  0
   -1.6265   -2.5004    9.2529 N   0  0  0  0  0  0  0  0  0  0  0  0
   -2.5685   -2.3880    8.1890 C   0  0  0  0  0  0  0  0  0  0  0  0
   -2.0799   -1.3025    7.2616 C   0  0  0  0  0  0  0  0  0  0  0  0
   -2.2012   -0.0846    8.0239 N   0  0  0  0  0  0  0  0  0  0  0  0
   -1.3902   -0.0323    9.1112 C   0  0  0  0  0  0  0  0  0  0  0  0
   -0.8813   -1.3730    9.5919 C   0  0  0  0  0  0  0  0  0  0  0  0
   -3.3825    0.5325    7.7508 C   0  0  0  0  0  0  0  0  0  0  0  0
   -4.6791   -0.2667    7.9115 C   0  0  0  0  0  0  0  0  0  0  0  0
   -5.6964    0.4649    8.7100 C   0  0  0  0  0  0  0  0  0  0  0  0
   -6.4066   -0.4221    9.4872 C   0  0  0  0  0  0  0  0  0  0  0  0
   -7.4271   -0.0037   10.3400 C   0  0  0  0  0  0  0  0  0  0  0  0
   -7.7298    1.3378   10.4031 C   0  0  0  0  0  0  0  0  0  0  0  0
   -7.0372    2.2418    9.6389 C   0  0  0  0  0  0  0  0  0  0  0  0
   -6.0315    1.7971    8.8035 C   0  0  0  0  0  0  0  0  0  0  0  0
   -5.3141    3.2199    7.9329 S   0  0  0  0  0  0  0  0  0  0  0  0
   -4.3754    2.5201    6.5297 C   0  0  0  0  0  0  0  0  0  0  0  0
   -3.5997    1.3614    6.5549 C   0  0  0  0  0  0  0  0  0  0  0  0
   -2.9780    0.9218    5.4180 C   0  0  0  0  0  0  0  0  0  0  0  0
   -3.1463    1.6702    4.2491 C   0  0  0  0  0  0  0  0  0  0  0  0
   -3.9147    2.8132    4.2426 C   0  0  0  0  0  0  0  0  0  0  0  0
   -4.5429    3.2570    5.3854 C   0  0  0  0  0  0  0  0  0  0  0  0
   -2.3666    1.1613    2.7293 S   0  0  0  0  0  0  0  0  0  0  0  0
   -0.6422    1.7034    2.7084 C   0  0  0  0  0  0  0  0  0  0  0  0
  1  2  1  0
  2  3  1  0
  3  4  1  0
  4  5  1  0
  5  6  1  0
  6  7  1  0
  5  8  1  0
  8  9  1  0
  9 10  1  0
 10 11  2  0
 11 12  1  0
 12 13  2  0
 13 14  1  0
 14 15  2  0
 15 16  1  0
 16 17  1  0
 17 18  2  0
 18 19  1  0
 19 20  2  0
 20 21  1  0
 21 22  2  0
 20 23  1  0
 23 24  1  0
  7  2  1  0
 18  8  1  0
 15 10  1  0
 22 17  1  0
M  END
$$$$
