
     RDKit          3D

 24 27  0  0  0  0  0  0  0  0999 V2000
    0.2955   -3.0594    7.1194 C   0  0  0  0  0  0  0  0  0  0  0  0
   -0.6853   -2.1474    7.6629 N   0  0  0  0  0  0  0  0  0  0  0  0
   -1.7230   -1.8811    6.7225 C   0  0  0  0  0  0  0  0  0  0  0  0
   -1.5686   -0.4505    6.2677 C   0  0  0  0  0  0  0  0  0  0  0  0
   -1.8804    0.3416    7.4314 N   0  0  0  0  0  0  0  0  0  0  0  0
   -1.0036    0.1845    8.4558 C   0  0  0  0  0  0  0  0  0  0  0  0
   -0.1742   -1.0790    8.3967 C   0  0  0  0  0  0  0  0  0  0  0  0
   -3.1873    0.7191    7.4144 C   0  0  0  0  0  0  0  0  0  0  0  0
   -4.2600   -0.3500    7.6421 C   0  0  0  0  0  0  0  0  0  0  0  0
   -5.2536    0.0586    8.6686 C   0  0  0  0  0  0  0  0  0  0  0  0
   -5.6405   -1.0372    9.4065 C   0  0  0  0  0  0  0  0  0  0  0  0
   -6.5675   -0.9393   10.4433 C   0  0  0  0  0  0  0  0  0  0  0  0
   -7.1093    0.2924   10.7337 C   0  0  0  0  0  0  0  0  0  0  0  0
   -6.7405    1.3997   10.0134 C   0  0  0  0  0  0  0  0  0  0  0  0
   -5.8199    1.2712    8.9922 C   0  0  0  0  0  0  0  0  0  0  0  0
   -5.5452    2.8990    8.2360 S   0  0  0  0  0  0  0  0  0  0  0  0
   -4.7337    2.5695    6.6320 C   0  0  0  0  0  0  0  0  0  0  0  0
   -3.7552    1.6063    6.3874 C   0  0  0  0  0  0  0  0  0  0  0  0
   -3.2567    1.4336    5.1249 C   0  0  0  0  0  0  0  0  0  0  0  0
   -3.7573    2.2501    4.1063 C   0  0  0  0  0  0  0  0  0  0  0  0
   -4.7226    3.1976    4.3661 C   0  0  0  0  0  0  0  0  0  0  0  0
   -5.2273    3.3724    5.6358 C   0  0  0  0  0  0  0  0  0  0  0  0
   -3.1558    2.0847    2.4367 S   0  0  0  0  0  0  0  0  0  0  0  0
   -3.4645    3.6092    1.5154 C   0  0  0  0  0  0  0  0  0  0  0  0
  1  2  1  0
  2  3  1  0
  3  4  1  0
  4  5  1  0
  5  6  1  0
  6  7  1  0
  5  8  1  0
  8  9  1  0
  9 10  1  0
 10 11  2  0
 11 12  1  0
 12 13  2  0
 13 14  1  0
 14 15  2  0
 15 16  1  0
 16 17  1  0
 17 18  2  0
 18 19  1  0
 19 20  2  0
 20 21  1  0
 21 22  2  0
 20 23  1  0
 23 24  1  0
  7  2  1  0
 18  8  1  0
 15 10  1  0
 22 17  1  0
M  END
$$$$
