
     RDKit          3D

 24 27  0  0  0  0  0  0  0  0999 V2000
    0.9111   -2.8671    7.5283 C   0  0  0  0  0  0  0  0  0  0  0  0
   -0.1116   -1.9737    8.0234 N   0  0  0  0  0  0  0  0  0  0  0  0
   -1.2394   -1.9431    7.1522 C   0  0  0  0  0  0  0  0  0  0  0  0
   -1.2640   -0.5886    6.4873 C   0  0  0  0  0  0  0  0  0  0  0  0
   -1.5636    0.3382    7.5504 N   0  0  0  0  0  0  0  0  0  0  0  0
   -0.5998    0.4135    8.5034 C   0  0  0  0  0  0  0  0  0  0  0  0
    0.3448   -0.7669    8.5494 C   0  0  0  0  0  0  0  0  0  0  0  0
   -2.8991    0.5928    7.5980 C   0  0  0  0  0  0  0  0  0  0  0  0
   -3.8668   -0.5918    7.6767 C   0  0  0  0  0  0  0  0  0  0  0  0
   -4.8715   -0.4274    8.7590 C   0  0  0  0  0  0  0  0  0  0  0  0
   -5.1432   -1.6486    9.3335 C   0  0  0  0  0  0  0  0  0  0  0  0
   -6.0537   -1.7858   10.3805 C   0  0  0  0  0  0  0  0  0  0  0  0
   -6.6976   -0.6634   10.8501 C   0  0  0  0  0  0  0  0  0  0  0  0
   -6.4446    0.5649   10.2948 C   0  0  0  0  0  0  0  0  0  0  0  0
   -5.5374    0.6691    9.2588 C   0  0  0  0  0  0  0  0  0  0  0  0
   -5.4254    2.4068    8.7441 S   0  0  0  0  0  0  0  0  0  0  0  0
   -4.6211    2.3866    7.1032 C   0  0  0  0  0  0  0  0  0  0  0  0
   -3.5654    1.5622    6.7145 C   0  0  0  0  0  0  0  0  0  0  0  0
   -3.0797    1.6188    5.4366 C   0  0  0  0  0  0  0  0  0  0  0  0
   -3.6725    2.5235    4.5506 C   0  0  0  0  0  0  0  0  0  0  0  0
   -4.7132    3.3314    4.9520 C   0  0  0  0  0  0  0  0  0  0  0  0
   -5.2051    3.2753    6.2375 C   0  0  0  0  0  0  0  0  0  0  0  0
   -3.0932    2.6551    2.8702 S   0  0  0  0  0  0  0  0  0  0  0  0
   -4.4632    3.1006    1.7780 C   0  0  0  0  0  0  0  0  0  0  0  0
  1  2  1  0
  2  3  1  0
  3  4  1  0
  4  5  1  0
  5  6  1  0
  6  7  1  0
  5  8  1  0
  8  9  1  0
  9 10  1  0
 10 11  2  0
 11 12  1  0
 12 13  2  0
 13 14  1  0
 14 15  2  0
 15 16  1  0
 16 17  1  0
 17 18  2  0
 18 19  1  0
 19 20  2  0
 20 21  1  0
 21 22  2  0
 20 23  1  0
 23 24  1  0
  7  2  1  0
 18  8  1  0
 15 10  1  0
 22 17  1  0
M  END
$$$$
