
     RDKit          3D

 24 27  0  0  0  0  0  0  0  0999 V2000
   -0.2523   -3.4981    8.1071 C   0  0  0  0  0  0  0  0  0  0  0  0
   -1.2419   -2.4833    8.3899 N   0  0  0  0  0  0  0  0  0  0  0  0
   -2.0389   -2.2020    7.2420 C   0  0  0  0  0  0  0  0  0  0  0  0
   -1.6732   -0.8188    6.7623 C   0  0  0  0  0  0  0  0  0  0  0  0
   -2.1474    0.0671    7.7964 N   0  0  0  0  0  0  0  0  0  0  0  0
   -1.5152   -0.0884    8.9876 C   0  0  0  0  0  0  0  0  0  0  0  0
   -0.8023   -1.4108    9.1630 C   0  0  0  0  0  0  0  0  0  0  0  0
   -3.3861    0.5381    7.4889 C   0  0  0  0  0  0  0  0  0  0  0  0
   -4.5563   -0.4495    7.4558 C   0  0  0  0  0  0  0  0  0  0  0  0
   -5.7244    0.0349    8.2359 C   0  0  0  0  0  0  0  0  0  0  0  0
   -6.3456   -1.0265    8.8545 C   0  0  0  0  0  0  0  0  0  0  0  0
   -7.4737   -0.8567    9.6560 C   0  0  0  0  0  0  0  0  0  0  0  0
   -7.9776    0.4124    9.8309 C   0  0  0  0  0  0  0  0  0  0  0  0
   -7.3771    1.4865    9.2255 C   0  0  0  0  0  0  0  0  0  0  0  0
   -6.2609    1.2868    8.4373 C   0  0  0  0  0  0  0  0  0  0  0  0
   -5.7065    2.8868    7.7818 S   0  0  0  0  0  0  0  0  0  0  0  0
   -4.5789    2.4917    6.3989 C   0  0  0  0  0  0  0  0  0  0  0  0
   -3.6420    1.4591    6.3705 C   0  0  0  0  0  0  0  0  0  0  0  0
   -2.8845    1.2446    5.2514 C   0  0  0  0  0  0  0  0  0  0  0  0
   -3.0820    2.0902    4.1556 C   0  0  0  0  0  0  0  0  0  0  0  0
   -4.0106    3.1064    4.2015 C   0  0  0  0  0  0  0  0  0  0  0  0
   -4.7756    3.3234    5.3264 C   0  0  0  0  0  0  0  0  0  0  0  0
   -2.1318    1.8737    2.6633 S   0  0  0  0  0  0  0  0  0  0  0  0
   -2.7246    0.4252    1.7586 C   0  0  0  0  0  0  0  0  0  0  0  0
  1  2  1  0
  2  3  1  0
  3  4  1  0
  4  5  1  0
  5  6  1  0
  6  7  1  0
  5  8  1  0
  8  9  1  0
  9 10  1  0
 10 11  2  0
 11 12  1  0
 12 13  2  0
 13 14  1  0
 14 15  2  0
 15 16  1  0
 16 17  1  0
 17 18  2  0
 18 19  1  0
 19 20  2  0
 20 21  1  0
 21 22  2  0
 20 23  1  0
 23 24  1  0
  7  2  1  0
 18  8  1  0
 15 10  1  0
 22 17  1  0
M  END
$$$$
