
     RDKit          3D

 24 27  0  0  0  0  0  0  0  0999 V2000
   -1.5726   -2.3269   11.3606 C   0  0  0  0  0  0  0  0  0  0  0  0
   -1.5902   -1.6926   10.0620 N   0  0  0  0  0  0  0  0  0  0  0  0
   -2.7452   -0.8728    9.9009 C   0  0  0  0  0  0  0  0  0  0  0  0
   -3.6409   -1.5428    8.8880 C   0  0  0  0  0  0  0  0  0  0  0  0
   -2.9195   -1.4541    7.6427 N   0  0  0  0  0  0  0  0  0  0  0  0
   -1.7577   -2.1561    7.6279 C   0  0  0  0  0  0  0  0  0  0  0  0
   -1.2013   -2.4965    8.9926 C   0  0  0  0  0  0  0  0  0  0  0  0
   -3.3221   -0.3637    6.9358 C   0  0  0  0  0  0  0  0  0  0  0  0
   -4.8236   -0.1280    6.7476 C   0  0  0  0  0  0  0  0  0  0  0  0
   -5.2228    1.2620    7.0887 C   0  0  0  0  0  0  0  0  0  0  0  0
   -6.4659    1.2592    7.6801 C   0  0  0  0  0  0  0  0  0  0  0  0
   -7.0844    2.4346    8.1042 C   0  0  0  0  0  0  0  0  0  0  0  0
   -6.4281    3.6312    7.9238 C   0  0  0  0  0  0  0  0  0  0  0  0
   -5.1888    3.6610    7.3372 C   0  0  0  0  0  0  0  0  0  0  0  0
   -4.6017    2.4801    6.9274 C   0  0  0  0  0  0  0  0  0  0  0  0
   -2.9819    2.8489    6.1943 S   0  0  0  0  0  0  0  0  0  0  0  0
   -2.5107    1.3531    5.2560 C   0  0  0  0  0  0  0  0  0  0  0  0
   -2.7175    0.0327    5.6545 C   0  0  0  0  0  0  0  0  0  0  0  0
   -2.3525   -1.0008    4.8356 C   0  0  0  0  0  0  0  0  0  0  0  0
   -1.7705   -0.6858    3.6040 C   0  0  0  0  0  0  0  0  0  0  0  0
   -1.5721    0.6240    3.2271 C   0  0  0  0  0  0  0  0  0  0  0  0
   -1.9401    1.6664    4.0490 C   0  0  0  0  0  0  0  0  0  0  0  0
   -1.2678   -1.9782    2.4843 S   0  0  0  0  0  0  0  0  0  0  0  0
   -1.7161   -1.5359    0.7897 C   0  0  0  0  0  0  0  0  0  0  0  0
  1  2  1  0
  2  3  1  0
  3  4  1  0
  4  5  1  0
  5  6  1  0
  6  7  1  0
  5  8  1  0
  8  9  1  0
  9 10  1  0
 10 11  2  0
 11 12  1  0
 12 13  2  0
 13 14  1  0
 14 15  2  0
 15 16  1  0
 16 17  1  0
 17 18  2  0
 18 19  1  0
 19 20  2  0
 20 21  1  0
 21 22  2  0
 20 23  1  0
 23 24  1  0
  7  2  1  0
 18  8  1  0
 15 10  1  0
 22 17  1  0
M  END
$$$$
