
     RDKit          3D

 24 27  0  0  0  0  0  0  0  0999 V2000
   -1.6160   -3.9535   12.1766 C   0  0  0  0  0  0  0  0  0  0  0  0
   -1.8285   -2.8533   11.2636 N   0  0  0  0  0  0  0  0  0  0  0  0
   -3.2032   -2.4798   11.2128 C   0  0  0  0  0  0  0  0  0  0  0  0
   -3.7341   -2.8823    9.8588 C   0  0  0  0  0  0  0  0  0  0  0  0
   -3.0570   -2.0165    8.9254 N   0  0  0  0  0  0  0  0  0  0  0  0
   -1.7149   -2.2115    8.8672 C   0  0  0  0  0  0  0  0  0  0  0  0
   -1.1210   -2.9186   10.0652 C   0  0  0  0  0  0  0  0  0  0  0  0
   -3.8219   -0.9268    8.6458 C   0  0  0  0  0  0  0  0  0  0  0  0
   -5.3268   -1.1232    8.4401 C   0  0  0  0  0  0  0  0  0  0  0  0
   -6.1344   -0.1674    9.2414 C   0  0  0  0  0  0  0  0  0  0  0  0
   -7.2808   -0.7846    9.6884 C   0  0  0  0  0  0  0  0  0  0  0  0
   -8.2229   -0.1160   10.4690 C   0  0  0  0  0  0  0  0  0  0  0  0
   -7.9952    1.2006   10.8000 C   0  0  0  0  0  0  0  0  0  0  0  0
   -6.8607    1.8384   10.3671 C   0  0  0  0  0  0  0  0  0  0  0  0
   -5.9458    1.1498    9.5952 C   0  0  0  0  0  0  0  0  0  0  0  0
   -4.5675    2.2578    9.1834 S   0  0  0  0  0  0  0  0  0  0  0  0
   -3.6864    1.4581    7.7963 C   0  0  0  0  0  0  0  0  0  0  0  0
   -3.4389    0.0927    7.6567 C   0  0  0  0  0  0  0  0  0  0  0  0
   -2.8010   -0.3831    6.5436 C   0  0  0  0  0  0  0  0  0  0  0  0
   -2.4109    0.5397    5.5684 C   0  0  0  0  0  0  0  0  0  0  0  0
   -2.6619    1.8850    5.7234 C   0  0  0  0  0  0  0  0  0  0  0  0
   -3.3053    2.3664    6.8422 C   0  0  0  0  0  0  0  0  0  0  0  0
   -1.5741   -0.0044    4.0917 S   0  0  0  0  0  0  0  0  0  0  0  0
   -0.5766    1.3429    3.4153 C   0  0  0  0  0  0  0  0  0  0  0  0
  1  2  1  0
  2  3  1  0
  3  4  1  0
  4  5  1  0
  5  6  1  0
  6  7  1  0
  5  8  1  0
  8  9  1  0
  9 10  1  0
 10 11  2  0
 11 12  1  0
 12 13  2  0
 13 14  1  0
 14 15  2  0
 15 16  1  0
 16 17  1  0
 17 18  2  0
 18 19  1  0
 19 20  2  0
 20 21  1  0
 21 22  2  0
 20 23  1  0
 23 24  1  0
  7  2  1  0
 18  8  1  0
 15 10  1  0
 22 17  1  0
M  END
$$$$
