
     RDKit          3D

 24 27  0  0  0  0  0  0  0  0999 V2000
   -4.4053   -3.4198   12.8393 C   0  0  0  0  0  0  0  0  0  0  0  0
   -3.9117   -2.6741   11.7037 N   0  0  0  0  0  0  0  0  0  0  0  0
   -4.9528   -1.9224   11.0848 C   0  0  0  0  0  0  0  0  0  0  0  0
   -5.2381   -2.5574    9.7459 C   0  0  0  0  0  0  0  0  0  0  0  0
   -4.0544   -2.3093    8.9608 N   0  0  0  0  0  0  0  0  0  0  0  0
   -2.9415   -2.9277    9.4317 C   0  0  0  0  0  0  0  0  0  0  0  0
   -3.0129   -3.3510   10.8821 C   0  0  0  0  0  0  0  0  0  0  0  0
   -4.2107   -1.1893    8.2045 C   0  0  0  0  0  0  0  0  0  0  0  0
   -5.4872   -1.0424    7.3711 C   0  0  0  0  0  0  0  0  0  0  0  0
   -6.1377    0.2794    7.5652 C   0  0  0  0  0  0  0  0  0  0  0  0
   -7.5064    0.1361    7.5310 C   0  0  0  0  0  0  0  0  0  0  0  0
   -8.3666    1.2218    7.6891 C   0  0  0  0  0  0  0  0  0  0  0  0
   -7.8261    2.4726    7.8852 C   0  0  0  0  0  0  0  0  0  0  0  0
   -6.4657    2.6421    7.9233 C   0  0  0  0  0  0  0  0  0  0  0  0
   -5.6391    1.5474    7.7634 C   0  0  0  0  0  0  0  0  0  0  0  0
   -3.9101    2.0935    7.8599 S   0  0  0  0  0  0  0  0  0  0  0  0
   -2.9190    0.7263    7.1609 C   0  0  0  0  0  0  0  0  0  0  0  0
   -3.1439   -0.6362    7.3559 C   0  0  0  0  0  0  0  0  0  0  0  0
   -2.3482   -1.5625    6.7387 C   0  0  0  0  0  0  0  0  0  0  0  0
   -1.3152   -1.0963    5.9200 C   0  0  0  0  0  0  0  0  0  0  0  0
   -1.1062    0.2532    5.7400 C   0  0  0  0  0  0  0  0  0  0  0  0
   -1.9069    1.1878    6.3589 C   0  0  0  0  0  0  0  0  0  0  0  0
   -0.2364   -2.2425    5.0839 S   0  0  0  0  0  0  0  0  0  0  0  0
    0.4349   -1.4800    3.5885 C   0  0  0  0  0  0  0  0  0  0  0  0
  1  2  1  0
  2  3  1  0
  3  4  1  0
  4  5  1  0
  5  6  1  0
  6  7  1  0
  5  8  1  0
  8  9  1  0
  9 10  1  0
 10 11  2  0
 11 12  1  0
 12 13  2  0
 13 14  1  0
 14 15  2  0
 15 16  1  0
 16 17  1  0
 17 18  2  0
 18 19  1  0
 19 20  2  0
 20 21  1  0
 21 22  2  0
 20 23  1  0
 23 24  1  0
  7  2  1  0
 18  8  1  0
 15 10  1  0
 22 17  1  0
M  END
$$$$
