
     RDKit          3D

 24 27  0  0  0  0  0  0  0  0999 V2000
   -1.7575   -4.4561   10.1682 C   0  0  0  0  0  0  0  0  0  0  0  0
   -2.3898   -3.6482    9.1500 N   0  0  0  0  0  0  0  0  0  0  0  0
   -1.5518   -2.5658    8.7523 C   0  0  0  0  0  0  0  0  0  0  0  0
   -2.1805   -1.2925    9.2631 C   0  0  0  0  0  0  0  0  0  0  0  0
   -3.3954   -1.1497    8.4998 N   0  0  0  0  0  0  0  0  0  0  0  0
   -4.3080   -2.1282    8.7287 C   0  0  0  0  0  0  0  0  0  0  0  0
   -3.7465   -3.3935    9.3383 C   0  0  0  0  0  0  0  0  0  0  0  0
   -3.1893   -0.3442    7.4229 C   0  0  0  0  0  0  0  0  0  0  0  0
   -1.7717    0.1698    7.1552 C   0  0  0  0  0  0  0  0  0  0  0  0
   -1.3531   -0.0406    5.7451 C   0  0  0  0  0  0  0  0  0  0  0  0
   -0.0125   -0.3496    5.6969 C   0  0  0  0  0  0  0  0  0  0  0  0
    0.6449   -0.5992    4.4930 C   0  0  0  0  0  0  0  0  0  0  0  0
   -0.0728   -0.5335    3.3201 C   0  0  0  0  0  0  0  0  0  0  0  0
   -1.4095   -0.2277    3.3410 C   0  0  0  0  0  0  0  0  0  0  0  0
   -2.0330    0.0147    4.5491 C   0  0  0  0  0  0  0  0  0  0  0  0
   -3.7834    0.3902    4.2458 S   0  0  0  0  0  0  0  0  0  0  0  0
   -4.3974    1.1651    5.7829 C   0  0  0  0  0  0  0  0  0  0  0  0
   -4.0676    0.7862    7.0839 C   0  0  0  0  0  0  0  0  0  0  0  0
   -4.5669    1.4797    8.1525 C   0  0  0  0  0  0  0  0  0  0  0  0
   -5.4099    2.5644    7.8926 C   0  0  0  0  0  0  0  0  0  0  0  0
   -5.7265    2.9238    6.6012 C   0  0  0  0  0  0  0  0  0  0  0  0
   -5.2239    2.2283    5.5236 C   0  0  0  0  0  0  0  0  0  0  0  0
   -6.1001    3.5150    9.2330 S   0  0  0  0  0  0  0  0  0  0  0  0
   -7.7275    4.1490    8.7665 C   0  0  0  0  0  0  0  0  0  0  0  0
  1  2  1  0
  2  3  1  0
  3  4  1  0
  4  5  1  0
  5  6  1  0
  6  7  1  0
  5  8  1  0
  8  9  1  0
  9 10  1  0
 10 11  2  0
 11 12  1  0
 12 13  2  0
 13 14  1  0
 14 15  2  0
 15 16  1  0
 16 17  1  0
 17 18  2  0
 18 19  1  0
 19 20  2  0
 20 21  1  0
 21 22  2  0
 20 23  1  0
 23 24  1  0
  7  2  1  0
 18  8  1  0
 15 10  1  0
 22 17  1  0
M  END
$$$$
