
     RDKit          3D

 24 27  0  0  0  0  0  0  0  0999 V2000
    0.5130   -0.6072    4.5607 C   0  0  0  0  0  0  0  0  0  0  0  0
   -0.3538   -1.1377    5.5886 N   0  0  0  0  0  0  0  0  0  0  0  0
   -1.4774   -0.2886    5.8085 C   0  0  0  0  0  0  0  0  0  0  0  0
   -1.3060    0.3507    7.1646 C   0  0  0  0  0  0  0  0  0  0  0  0
   -1.4441   -0.7347    8.1037 N   0  0  0  0  0  0  0  0  0  0  0  0
   -0.4652   -1.6706    8.0117 C   0  0  0  0  0  0  0  0  0  0  0  0
    0.2892   -1.6772    6.7007 C   0  0  0  0  0  0  0  0  0  0  0  0
   -2.7244   -0.8120    8.5572 C   0  0  0  0  0  0  0  0  0  0  0  0
   -3.4295   -2.1713    8.5280 C   0  0  0  0  0  0  0  0  0  0  0  0
   -4.0703   -2.5014    9.8273 C   0  0  0  0  0  0  0  0  0  0  0  0
   -3.9646   -3.8523   10.0704 C   0  0  0  0  0  0  0  0  0  0  0  0
   -4.4815   -4.4372   11.2256 C   0  0  0  0  0  0  0  0  0  0  0  0
   -5.1157   -3.6355   12.1477 C   0  0  0  0  0  0  0  0  0  0  0  0
   -5.2342   -2.2868   11.9290 C   0  0  0  0  0  0  0  0  0  0  0  0
   -4.7120   -1.7363   10.7752 C   0  0  0  0  0  0  0  0  0  0  0  0
   -5.0286    0.0516   10.7778 S   0  0  0  0  0  0  0  0  0  0  0  0
   -4.7680    0.6034    9.0551 C   0  0  0  0  0  0  0  0  0  0  0  0
   -3.7676    0.1586    8.1911 C   0  0  0  0  0  0  0  0  0  0  0  0
   -3.7080    0.6243    6.9059 C   0  0  0  0  0  0  0  0  0  0  0  0
   -4.6730    1.5512    6.5003 C   0  0  0  0  0  0  0  0  0  0  0  0
   -5.6531    1.9809    7.3674 C   0  0  0  0  0  0  0  0  0  0  0  0
   -5.7162    1.5124    8.6613 C   0  0  0  0  0  0  0  0  0  0  0  0
   -4.6593    2.2040    4.8419 S   0  0  0  0  0  0  0  0  0  0  0  0
   -5.5379    3.7831    4.7927 C   0  0  0  0  0  0  0  0  0  0  0  0
  1  2  1  0
  2  3  1  0
  3  4  1  0
  4  5  1  0
  5  6  1  0
  6  7  1  0
  5  8  1  0
  8  9  1  0
  9 10  1  0
 10 11  2  0
 11 12  1  0
 12 13  2  0
 13 14  1  0
 14 15  2  0
 15 16  1  0
 16 17  1  0
 17 18  2  0
 18 19  1  0
 19 20  2  0
 20 21  1  0
 21 22  2  0
 20 23  1  0
 23 24  1  0
  7  2  1  0
 18  8  1  0
 15 10  1  0
 22 17  1  0
M  END
$$$$
