
     RDKit          3D

 24 27  0  0  0  0  0  0  0  0999 V2000
   -2.8644   -5.5825   10.6161 C   0  0  0  0  0  0  0  0  0  0  0  0
   -3.6431   -4.4224   10.2457 N   0  0  0  0  0  0  0  0  0  0  0  0
   -3.1063   -3.7852    9.0891 C   0  0  0  0  0  0  0  0  0  0  0  0
   -2.5161   -2.4676    9.5284 C   0  0  0  0  0  0  0  0  0  0  0  0
   -3.6500   -1.6703    9.9255 N   0  0  0  0  0  0  0  0  0  0  0  0
   -4.3129   -2.1552   11.0063 C   0  0  0  0  0  0  0  0  0  0  0  0
   -4.0669   -3.6181   11.3014 C   0  0  0  0  0  0  0  0  0  0  0  0
   -4.0606   -0.8807    8.8966 C   0  0  0  0  0  0  0  0  0  0  0  0
   -5.4342   -1.1472    8.2738 C   0  0  0  0  0  0  0  0  0  0  0  0
   -6.2478    0.0903    8.1533 C   0  0  0  0  0  0  0  0  0  0  0  0
   -7.5739   -0.1980    8.3841 C   0  0  0  0  0  0  0  0  0  0  0  0
   -8.5623    0.7841    8.3361 C   0  0  0  0  0  0  0  0  0  0  0  0
   -8.1959    2.0796    8.0487 C   0  0  0  0  0  0  0  0  0  0  0  0
   -6.8813    2.3930    7.8148 C   0  0  0  0  0  0  0  0  0  0  0  0
   -5.9249    1.3984    7.8694 C   0  0  0  0  0  0  0  0  0  0  0  0
   -4.2981    2.1230    7.5154 S   0  0  0  0  0  0  0  0  0  0  0  0
   -3.2030    0.7137    7.1218 C   0  0  0  0  0  0  0  0  0  0  0  0
   -3.1967   -0.5264    7.7598 C   0  0  0  0  0  0  0  0  0  0  0  0
   -2.3498   -1.5151    7.3386 C   0  0  0  0  0  0  0  0  0  0  0  0
   -1.5023   -1.2363    6.2620 C   0  0  0  0  0  0  0  0  0  0  0  0
   -1.5207   -0.0052    5.6447 C   0  0  0  0  0  0  0  0  0  0  0  0
   -2.3734    0.9913    6.0658 C   0  0  0  0  0  0  0  0  0  0  0  0
   -0.3706   -2.4735    5.6578 S   0  0  0  0  0  0  0  0  0  0  0  0
    0.9284   -1.6933    4.6720 C   0  0  0  0  0  0  0  0  0  0  0  0
  1  2  1  0
  2  3  1  0
  3  4  1  0
  4  5  1  0
  5  6  1  0
  6  7  1  0
  5  8  1  0
  8  9  1  0
  9 10  1  0
 10 11  2  0
 11 12  1  0
 12 13  2  0
 13 14  1  0
 14 15  2  0
 15 16  1  0
 16 17  1  0
 17 18  2  0
 18 19  1  0
 19 20  2  0
 20 21  1  0
 21 22  2  0
 20 23  1  0
 23 24  1  0
  7  2  1  0
 18  8  1  0
 15 10  1  0
 22 17  1  0
M  END
$$$$
