
     RDKit          3D

 24 27  0  0  0  0  0  0  0  0999 V2000
   -1.6716   -3.9949   10.1651 C   0  0  0  0  0  0  0  0  0  0  0  0
   -2.1884   -2.6788    9.8646 N   0  0  0  0  0  0  0  0  0  0  0  0
   -2.8500   -2.6573    8.6022 C   0  0  0  0  0  0  0  0  0  0  0  0
   -1.9966   -1.8499    7.6551 C   0  0  0  0  0  0  0  0  0  0  0  0
   -2.0649   -0.5001    8.1574 N   0  0  0  0  0  0  0  0  0  0  0  0
   -1.5059   -0.3399    9.3840 C   0  0  0  0  0  0  0  0  0  0  0  0
   -1.3490   -1.6137   10.1843 C   0  0  0  0  0  0  0  0  0  0  0  0
   -3.0372    0.1994    7.5124 C   0  0  0  0  0  0  0  0  0  0  0  0
   -4.4683   -0.3455    7.5367 C   0  0  0  0  0  0  0  0  0  0  0  0
   -5.4589    0.6904    7.9284 C   0  0  0  0  0  0  0  0  0  0  0  0
   -6.4550    0.1205    8.6887 C   0  0  0  0  0  0  0  0  0  0  0  0
   -7.5179    0.8683    9.1937 C   0  0  0  0  0  0  0  0  0  0  0  0
   -7.5681    2.2167    8.9208 C   0  0  0  0  0  0  0  0  0  0  0  0
   -6.5881    2.8086    8.1657 C   0  0  0  0  0  0  0  0  0  0  0  0
   -5.5478    2.0416    7.6793 C   0  0  0  0  0  0  0  0  0  0  0  0
   -4.4263    3.1041    6.7251 S   0  0  0  0  0  0  0  0  0  0  0  0
   -3.3937    1.9691    5.7323 C   0  0  0  0  0  0  0  0  0  0  0  0
   -2.8691    0.7491    6.1581 C   0  0  0  0  0  0  0  0  0  0  0  0
   -2.1424   -0.0279    5.2977 C   0  0  0  0  0  0  0  0  0  0  0  0
   -1.9474    0.4435    3.9960 C   0  0  0  0  0  0  0  0  0  0  0  0
   -2.4714    1.6518    3.5928 C   0  0  0  0  0  0  0  0  0  0  0  0
   -3.2047    2.4352    4.4566 C   0  0  0  0  0  0  0  0  0  0  0  0
   -1.0106   -0.5121    2.8188 S   0  0  0  0  0  0  0  0  0  0  0  0
   -1.9243   -2.0058    2.3694 C   0  0  0  0  0  0  0  0  0  0  0  0
  1  2  1  0
  2  3  1  0
  3  4  1  0
  4  5  1  0
  5  6  1  0
  6  7  1  0
  5  8  1  0
  8  9  1  0
  9 10  1  0
 10 11  2  0
 11 12  1  0
 12 13  2  0
 13 14  1  0
 14 15  2  0
 15 16  1  0
 16 17  1  0
 17 18  2  0
 18 19  1  0
 19 20  2  0
 20 21  1  0
 21 22  2  0
 20 23  1  0
 23 24  1  0
  7  2  1  0
 18  8  1  0
 15 10  1  0
 22 17  1  0
M  END
$$$$
