
     RDKit          3D

 24 27  0  0  0  0  0  0  0  0999 V2000
   -3.7935   -5.1559   10.8800 C   0  0  0  0  0  0  0  0  0  0  0  0
   -4.1241   -3.8038   10.4904 N   0  0  0  0  0  0  0  0  0  0  0  0
   -4.1296   -3.6594    9.0723 C   0  0  0  0  0  0  0  0  0  0  0  0
   -2.9422   -2.8071    8.6972 C   0  0  0  0  0  0  0  0  0  0  0  0
   -3.2450   -1.5004    9.2262 N   0  0  0  0  0  0  0  0  0  0  0  0
   -3.3155   -1.4574   10.5812 C   0  0  0  0  0  0  0  0  0  0  0  0
   -3.5351   -2.7958   11.2508 C   0  0  0  0  0  0  0  0  0  0  0  0
   -3.8161   -0.7199    8.2694 C   0  0  0  0  0  0  0  0  0  0  0  0
   -5.2369   -1.0540    7.8055 C   0  0  0  0  0  0  0  0  0  0  0  0
   -6.1249    0.1373    7.8073 C   0  0  0  0  0  0  0  0  0  0  0  0
   -7.3971   -0.2288    8.1850 C   0  0  0  0  0  0  0  0  0  0  0  0
   -8.4361    0.6966    8.2737 C   0  0  0  0  0  0  0  0  0  0  0  0
   -8.1769    2.0148    7.9734 C   0  0  0  0  0  0  0  0  0  0  0  0
   -6.9179    2.4053    7.5945 C   0  0  0  0  0  0  0  0  0  0  0  0
   -5.9091    1.4655    7.5158 C   0  0  0  0  0  0  0  0  0  0  0  0
   -4.3770    2.2860    6.9902 S   0  0  0  0  0  0  0  0  0  0  0  0
   -3.2610    0.9468    6.4414 C   0  0  0  0  0  0  0  0  0  0  0  0
   -3.1124   -0.3005    7.0475 C   0  0  0  0  0  0  0  0  0  0  0  0
   -2.2685   -1.2334    6.5093 C   0  0  0  0  0  0  0  0  0  0  0  0
   -1.5700   -0.8912    5.3475 C   0  0  0  0  0  0  0  0  0  0  0  0
   -1.7276    0.3460    4.7631 C   0  0  0  0  0  0  0  0  0  0  0  0
   -2.5777    1.2865    5.3020 C   0  0  0  0  0  0  0  0  0  0  0  0
   -0.4517   -2.0534    4.5890 S   0  0  0  0  0  0  0  0  0  0  0  0
    0.5803   -2.8319    5.8526 C   0  0  0  0  0  0  0  0  0  0  0  0
  1  2  1  0
  2  3  1  0
  3  4  1  0
  4  5  1  0
  5  6  1  0
  6  7  1  0
  5  8  1  0
  8  9  1  0
  9 10  1  0
 10 11  2  0
 11 12  1  0
 12 13  2  0
 13 14  1  0
 14 15  2  0
 15 16  1  0
 16 17  1  0
 17 18  2  0
 18 19  1  0
 19 20  2  0
 20 21  1  0
 21 22  2  0
 20 23  1  0
 23 24  1  0
  7  2  1  0
 18  8  1  0
 15 10  1  0
 22 17  1  0
M  END
$$$$
