
     RDKit          3D

 24 27  0  0  0  0  0  0  0  0999 V2000
   -7.7866    3.1066   10.3066 C   0  0  0  0  0  0  0  0  0  0  0  0
   -6.6094    2.3251   10.0022 N   0  0  0  0  0  0  0  0  0  0  0  0
   -6.2260    2.4752    8.6375 C   0  0  0  0  0  0  0  0  0  0  0  0
   -6.5054    1.1665    7.9400 C   0  0  0  0  0  0  0  0  0  0  0  0
   -5.5644    0.2359    8.5123 N   0  0  0  0  0  0  0  0  0  0  0  0
   -5.7601   -0.0025    9.8343 C   0  0  0  0  0  0  0  0  0  0  0  0
   -6.5727    1.0481   10.5580 C   0  0  0  0  0  0  0  0  0  0  0  0
   -4.4504    0.1472    7.7364 C   0  0  0  0  0  0  0  0  0  0  0  0
   -4.6244   -0.0042    6.2223 C   0  0  0  0  0  0  0  0  0  0  0  0
   -3.7901    0.9606    5.4602 C   0  0  0  0  0  0  0  0  0  0  0  0
   -4.4677    1.3790    4.3373 C   0  0  0  0  0  0  0  0  0  0  0  0
   -3.9159    2.2914    3.4391 C   0  0  0  0  0  0  0  0  0  0  0  0
   -2.6552    2.7857    3.6870 C   0  0  0  0  0  0  0  0  0  0  0  0
   -1.9592    2.3847    4.7986 C   0  0  0  0  0  0  0  0  0  0  0  0
   -2.5322    1.4796    5.6701 C   0  0  0  0  0  0  0  0  0  0  0  0
   -1.3719    1.1506    7.0275 S   0  0  0  0  0  0  0  0  0  0  0  0
   -1.9717   -0.3765    7.8327 C   0  0  0  0  0  0  0  0  0  0  0  0
   -3.3043   -0.7130    8.0693 C   0  0  0  0  0  0  0  0  0  0  0  0
   -3.6216   -1.9122    8.6468 C   0  0  0  0  0  0  0  0  0  0  0  0
   -2.5731   -2.7722    8.9874 C   0  0  0  0  0  0  0  0  0  0  0  0
   -1.2625   -2.4230    8.7479 C   0  0  0  0  0  0  0  0  0  0  0  0
   -0.9405   -1.2170    8.1653 C   0  0  0  0  0  0  0  0  0  0  0  0
   -2.9077   -4.3508    9.7442 S   0  0  0  0  0  0  0  0  0  0  0  0
   -1.7760   -5.6005    9.0919 C   0  0  0  0  0  0  0  0  0  0  0  0
  1  2  1  0
  2  3  1  0
  3  4  1  0
  4  5  1  0
  5  6  1  0
  6  7  1  0
  5  8  1  0
  8  9  1  0
  9 10  1  0
 10 11  2  0
 11 12  1  0
 12 13  2  0
 13 14  1  0
 14 15  2  0
 15 16  1  0
 16 17  1  0
 17 18  2  0
 18 19  1  0
 19 20  2  0
 20 21  1  0
 21 22  2  0
 20 23  1  0
 23 24  1  0
  7  2  1  0
 18  8  1  0
 15 10  1  0
 22 17  1  0
M  END
$$$$
