
     RDKit          3D

 24 27  0  0  0  0  0  0  0  0999 V2000
   -1.4822   -3.6402   10.2518 C   0  0  0  0  0  0  0  0  0  0  0  0
   -1.8813   -2.3228    9.8110 N   0  0  0  0  0  0  0  0  0  0  0  0
   -2.7466   -2.3943    8.6804 C   0  0  0  0  0  0  0  0  0  0  0  0
   -1.9816   -1.8737    7.4885 C   0  0  0  0  0  0  0  0  0  0  0  0
   -1.7977   -0.4684    7.7540 N   0  0  0  0  0  0  0  0  0  0  0  0
   -1.0170   -0.2095    8.8340 C   0  0  0  0  0  0  0  0  0  0  0  0
   -0.8769   -1.3573    9.8090 C   0  0  0  0  0  0  0  0  0  0  0  0
   -2.7765    0.2616    7.1544 C   0  0  0  0  0  0  0  0  0  0  0  0
   -4.2365   -0.1265    7.4066 C   0  0  0  0  0  0  0  0  0  0  0  0
   -5.0705    1.0402    7.7951 C   0  0  0  0  0  0  0  0  0  0  0  0
   -6.0091    0.6544    8.7253 C   0  0  0  0  0  0  0  0  0  0  0  0
   -6.9262    1.5546    9.2660 C   0  0  0  0  0  0  0  0  0  0  0  0
   -6.8879    2.8675    8.8539 C   0  0  0  0  0  0  0  0  0  0  0  0
   -5.9625    3.2773    7.9283 C   0  0  0  0  0  0  0  0  0  0  0  0
   -5.0670    2.3623    7.4107 C   0  0  0  0  0  0  0  0  0  0  0  0
   -3.9844    3.2035    6.2202 S   0  0  0  0  0  0  0  0  0  0  0  0
   -3.1947    1.8754    5.2443 C   0  0  0  0  0  0  0  0  0  0  0  0
   -2.7333    0.6552    5.7375 C   0  0  0  0  0  0  0  0  0  0  0  0
   -2.1962   -0.2739    4.8887 C   0  0  0  0  0  0  0  0  0  0  0  0
   -2.1268    0.0446    3.5291 C   0  0  0  0  0  0  0  0  0  0  0  0
   -2.5858    1.2553    3.0594 C   0  0  0  0  0  0  0  0  0  0  0  0
   -3.1284    2.1917    3.9116 C   0  0  0  0  0  0  0  0  0  0  0  0
   -1.4389   -1.1143    2.3627 S   0  0  0  0  0  0  0  0  0  0  0  0
   -2.1976   -0.8797    0.7387 C   0  0  0  0  0  0  0  0  0  0  0  0
  1  2  1  0
  2  3  1  0
  3  4  1  0
  4  5  1  0
  5  6  1  0
  6  7  1  0
  5  8  1  0
  8  9  1  0
  9 10  1  0
 10 11  2  0
 11 12  1  0
 12 13  2  0
 13 14  1  0
 14 15  2  0
 15 16  1  0
 16 17  1  0
 17 18  2  0
 18 19  1  0
 19 20  2  0
 20 21  1  0
 21 22  2  0
 20 23  1  0
 23 24  1  0
  7  2  1  0
 18  8  1  0
 15 10  1  0
 22 17  1  0
M  END
$$$$
