
     RDKit          3D

 24 27  0  0  0  0  0  0  0  0999 V2000
   -2.2984   -5.9697    9.9559 C   0  0  0  0  0  0  0  0  0  0  0  0
   -3.0651   -4.7844    9.6451 N   0  0  0  0  0  0  0  0  0  0  0  0
   -2.3723   -3.9455    8.7241 C   0  0  0  0  0  0  0  0  0  0  0  0
   -1.9426   -2.7070    9.4715 C   0  0  0  0  0  0  0  0  0  0  0  0
   -3.1712   -2.0192    9.7818 N   0  0  0  0  0  0  0  0  0  0  0  0
   -3.9834   -2.6984   10.6314 C   0  0  0  0  0  0  0  0  0  0  0  0
   -3.7104   -4.1833   10.7237 C   0  0  0  0  0  0  0  0  0  0  0  0
   -3.4408   -1.0769    8.8383 C   0  0  0  0  0  0  0  0  0  0  0  0
   -2.3485   -0.0634    8.4844 C   0  0  0  0  0  0  0  0  0  0  0  0
   -2.1398    0.0508    7.0177 C   0  0  0  0  0  0  0  0  0  0  0  0
   -0.8041    0.2489    6.7498 C   0  0  0  0  0  0  0  0  0  0  0  0
   -0.3249    0.3888    5.4480 C   0  0  0  0  0  0  0  0  0  0  0  0
   -1.2184    0.3261    4.4026 C   0  0  0  0  0  0  0  0  0  0  0  0
   -2.5543    0.1296    4.6428 C   0  0  0  0  0  0  0  0  0  0  0  0
   -2.9990   -0.0054    5.9432 C   0  0  0  0  0  0  0  0  0  0  0  0
   -4.7983   -0.2484    5.9302 S   0  0  0  0  0  0  0  0  0  0  0  0
   -5.3545    0.0765    7.6405 C   0  0  0  0  0  0  0  0  0  0  0  0
   -4.6924   -0.3043    8.8073 C   0  0  0  0  0  0  0  0  0  0  0  0
   -5.1980    0.0392   10.0315 C   0  0  0  0  0  0  0  0  0  0  0  0
   -6.3876    0.7730   10.0658 C   0  0  0  0  0  0  0  0  0  0  0  0
   -7.0293    1.1393    8.9034 C   0  0  0  0  0  0  0  0  0  0  0  0
   -6.5215    0.7962    7.6697 C   0  0  0  0  0  0  0  0  0  0  0  0
   -7.1079    1.2558   11.6229 S   0  0  0  0  0  0  0  0  0  0  0  0
   -8.6813    2.1000   11.3401 C   0  0  0  0  0  0  0  0  0  0  0  0
  1  2  1  0
  2  3  1  0
  3  4  1  0
  4  5  1  0
  5  6  1  0
  6  7  1  0
  5  8  1  0
  8  9  1  0
  9 10  1  0
 10 11  2  0
 11 12  1  0
 12 13  2  0
 13 14  1  0
 14 15  2  0
 15 16  1  0
 16 17  1  0
 17 18  2  0
 18 19  1  0
 19 20  2  0
 20 21  1  0
 21 22  2  0
 20 23  1  0
 23 24  1  0
  7  2  1  0
 18  8  1  0
 15 10  1  0
 22 17  1  0
M  END
$$$$
