
     RDKit          3D

 24 27  0  0  0  0  0  0  0  0999 V2000
   -1.9845   -5.3782   11.4029 C   0  0  0  0  0  0  0  0  0  0  0  0
   -2.3396   -4.6360   10.2145 N   0  0  0  0  0  0  0  0  0  0  0  0
   -2.1764   -3.2336   10.4108 C   0  0  0  0  0  0  0  0  0  0  0  0
   -3.5528   -2.6159   10.4454 C   0  0  0  0  0  0  0  0  0  0  0  0
   -4.0587   -2.7684    9.1038 N   0  0  0  0  0  0  0  0  0  0  0  0
   -4.2441   -4.0598    8.7285 C   0  0  0  0  0  0  0  0  0  0  0  0
   -3.4795   -5.0772    9.5458 C   0  0  0  0  0  0  0  0  0  0  0  0
   -3.8236   -1.6437    8.3755 C   0  0  0  0  0  0  0  0  0  0  0  0
   -2.4456   -0.9829    8.4753 C   0  0  0  0  0  0  0  0  0  0  0  0
   -1.8616   -0.6936    7.1399 C   0  0  0  0  0  0  0  0  0  0  0  0
   -0.4988   -0.8855    7.1745 C   0  0  0  0  0  0  0  0  0  0  0  0
    0.3036   -0.6858    6.0520 C   0  0  0  0  0  0  0  0  0  0  0  0
   -0.2894   -0.2846    4.8762 C   0  0  0  0  0  0  0  0  0  0  0  0
   -1.6452   -0.0865    4.8156 C   0  0  0  0  0  0  0  0  0  0  0  0
   -2.4139   -0.2924    5.9442 C   0  0  0  0  0  0  0  0  0  0  0  0
   -4.1517    0.0518    5.5463 S   0  0  0  0  0  0  0  0  0  0  0  0
   -4.9999    0.2409    7.1541 C   0  0  0  0  0  0  0  0  0  0  0  0
   -4.7720   -0.5216    8.2993 C   0  0  0  0  0  0  0  0  0  0  0  0
   -5.4492   -0.2488    9.4565 C   0  0  0  0  0  0  0  0  0  0  0  0
   -6.3664    0.8065    9.4447 C   0  0  0  0  0  0  0  0  0  0  0  0
   -6.5803    1.5482    8.3041 C   0  0  0  0  0  0  0  0  0  0  0  0
   -5.8986    1.2766    7.1383 C   0  0  0  0  0  0  0  0  0  0  0  0
   -7.2872    1.2209   10.9134 S   0  0  0  0  0  0  0  0  0  0  0  0
   -7.8009    2.9530   10.8519 C   0  0  0  0  0  0  0  0  0  0  0  0
  1  2  1  0
  2  3  1  0
  3  4  1  0
  4  5  1  0
  5  6  1  0
  6  7  1  0
  5  8  1  0
  8  9  1  0
  9 10  1  0
 10 11  2  0
 11 12  1  0
 12 13  2  0
 13 14  1  0
 14 15  2  0
 15 16  1  0
 16 17  1  0
 17 18  2  0
 18 19  1  0
 19 20  2  0
 20 21  1  0
 21 22  2  0
 20 23  1  0
 23 24  1  0
  7  2  1  0
 18  8  1  0
 15 10  1  0
 22 17  1  0
M  END
$$$$
