
     RDKit          3D

 24 27  0  0  0  0  0  0  0  0999 V2000
    0.1878   -2.2318    5.5350 C   0  0  0  0  0  0  0  0  0  0  0  0
   -1.0836   -1.9634    6.1682 N   0  0  0  0  0  0  0  0  0  0  0  0
   -1.6522   -0.7453    5.6940 C   0  0  0  0  0  0  0  0  0  0  0  0
   -1.5918    0.2545    6.8227 C   0  0  0  0  0  0  0  0  0  0  0  0
   -2.5122   -0.2500    7.8113 N   0  0  0  0  0  0  0  0  0  0  0  0
   -2.1424   -1.4387    8.3525 C   0  0  0  0  0  0  0  0  0  0  0  0
   -1.1449   -2.2286    7.5346 C   0  0  0  0  0  0  0  0  0  0  0  0
   -3.7329    0.3330    7.6667 C   0  0  0  0  0  0  0  0  0  0  0  0
   -4.9814   -0.5463    7.7839 C   0  0  0  0  0  0  0  0  0  0  0  0
   -5.9914    0.0300    8.7089 C   0  0  0  0  0  0  0  0  0  0  0  0
   -6.6207   -0.9797    9.4014 C   0  0  0  0  0  0  0  0  0  0  0  0
   -7.6166   -0.7207   10.3421 C   0  0  0  0  0  0  0  0  0  0  0  0
   -7.9780    0.5859   10.5819 C   0  0  0  0  0  0  0  0  0  0  0  0
   -7.3664    1.6100    9.9051 C   0  0  0  0  0  0  0  0  0  0  0  0
   -6.3832    1.3220    8.9792 C   0  0  0  0  0  0  0  0  0  0  0  0
   -5.7763    2.8746    8.2594 S   0  0  0  0  0  0  0  0  0  0  0  0
   -4.8758    2.3984    6.7420 C   0  0  0  0  0  0  0  0  0  0  0  0
   -4.0467    1.2871    6.5918 C   0  0  0  0  0  0  0  0  0  0  0  0
   -3.4616    1.0204    5.3841 C   0  0  0  0  0  0  0  0  0  0  0  0
   -3.7216    1.8940    4.3238 C   0  0  0  0  0  0  0  0  0  0  0  0
   -4.5418    2.9879    4.4903 C   0  0  0  0  0  0  0  0  0  0  0  0
   -5.1333    3.2578    5.7048 C   0  0  0  0  0  0  0  0  0  0  0  0
   -2.9944    1.6129    2.7211 S   0  0  0  0  0  0  0  0  0  0  0  0
   -3.7266    2.7330    1.5057 C   0  0  0  0  0  0  0  0  0  0  0  0
  1  2  1  0
  2  3  1  0
  3  4  1  0
  4  5  1  0
  5  6  1  0
  6  7  1  0
  5  8  1  0
  8  9  1  0
  9 10  1  0
 10 11  2  0
 11 12  1  0
 12 13  2  0
 13 14  1  0
 14 15  2  0
 15 16  1  0
 16 17  1  0
 17 18  2  0
 18 19  1  0
 19 20  2  0
 20 21  1  0
 21 22  2  0
 20 23  1  0
 23 24  1  0
  7  2  1  0
 18  8  1  0
 15 10  1  0
 22 17  1  0
M  END
$$$$
