
     RDKit          3D

 24 27  0  0  0  0  0  0  0  0999 V2000
   -4.1126   -5.6924   10.6540 C   0  0  0  0  0  0  0  0  0  0  0  0
   -4.0873   -4.5477    9.7718 N   0  0  0  0  0  0  0  0  0  0  0  0
   -2.7583   -4.2423    9.3565 C   0  0  0  0  0  0  0  0  0  0  0  0
   -2.3603   -2.9473   10.0211 C   0  0  0  0  0  0  0  0  0  0  0  0
   -3.2017   -1.9470    9.4123 N   0  0  0  0  0  0  0  0  0  0  0  0
   -4.5240   -2.1048    9.6760 C   0  0  0  0  0  0  0  0  0  0  0  0
   -4.9224   -3.4915   10.1300 C   0  0  0  0  0  0  0  0  0  0  0  0
   -2.5551   -1.3470    8.3766 C   0  0  0  0  0  0  0  0  0  0  0  0
   -1.2189   -0.6516    8.6535 C   0  0  0  0  0  0  0  0  0  0  0  0
   -0.1621   -1.0588    7.6917 C   0  0  0  0  0  0  0  0  0  0  0  0
    1.0534   -1.1269    8.3344 C   0  0  0  0  0  0  0  0  0  0  0  0
    2.2226   -1.4885    7.6665 C   0  0  0  0  0  0  0  0  0  0  0  0
    2.1542   -1.7853    6.3240 C   0  0  0  0  0  0  0  0  0  0  0  0
    0.9554   -1.7249    5.6605 C   0  0  0  0  0  0  0  0  0  0  0  0
   -0.1858   -1.3635    6.3492 C   0  0  0  0  0  0  0  0  0  0  0  0
   -1.5950   -1.3738    5.2043 S   0  0  0  0  0  0  0  0  0  0  0  0
   -2.9195   -0.4323    6.0404 C   0  0  0  0  0  0  0  0  0  0  0  0
   -3.2321   -0.4812    7.3987 C   0  0  0  0  0  0  0  0  0  0  0  0
   -4.2261    0.3095    7.9074 C   0  0  0  0  0  0  0  0  0  0  0  0
   -4.9073    1.1533    7.0248 C   0  0  0  0  0  0  0  0  0  0  0  0
   -4.5867    1.1876    5.6857 C   0  0  0  0  0  0  0  0  0  0  0  0
   -3.5853    0.3937    5.1714 C   0  0  0  0  0  0  0  0  0  0  0  0
   -6.2152    2.2116    7.6131 S   0  0  0  0  0  0  0  0  0  0  0  0
   -6.3749    3.6536    6.5346 C   0  0  0  0  0  0  0  0  0  0  0  0
  1  2  1  0
  2  3  1  0
  3  4  1  0
  4  5  1  0
  5  6  1  0
  6  7  1  0
  5  8  1  0
  8  9  1  0
  9 10  1  0
 10 11  2  0
 11 12  1  0
 12 13  2  0
 13 14  1  0
 14 15  2  0
 15 16  1  0
 16 17  1  0
 17 18  2  0
 18 19  1  0
 19 20  2  0
 20 21  1  0
 21 22  2  0
 20 23  1  0
 23 24  1  0
  7  2  1  0
 18  8  1  0
 15 10  1  0
 22 17  1  0
M  END
$$$$
