
     RDKit          3D

 24 27  0  0  0  0  0  0  0  0999 V2000
   -7.3269   -0.5237   10.7236 C   0  0  0  0  0  0  0  0  0  0  0  0
   -6.2283   -0.9556    9.8895 N   0  0  0  0  0  0  0  0  0  0  0  0
   -5.3491    0.1254    9.5891 C   0  0  0  0  0  0  0  0  0  0  0  0
   -5.5097    0.4486    8.1238 C   0  0  0  0  0  0  0  0  0  0  0  0
   -4.9733   -0.6976    7.4328 N   0  0  0  0  0  0  0  0  0  0  0  0
   -5.6751   -1.8417    7.6364 C   0  0  0  0  0  0  0  0  0  0  0  0
   -6.5607   -1.8365    8.8625 C   0  0  0  0  0  0  0  0  0  0  0  0
   -3.6710   -0.4868    7.1005 C   0  0  0  0  0  0  0  0  0  0  0  0
   -2.6559   -0.2661    8.2258 C   0  0  0  0  0  0  0  0  0  0  0  0
   -1.4530   -1.1254    8.0758 C   0  0  0  0  0  0  0  0  0  0  0  0
   -1.0103   -1.5298    9.3150 C   0  0  0  0  0  0  0  0  0  0  0  0
    0.1068   -2.3498    9.4686 C   0  0  0  0  0  0  0  0  0  0  0  0
    0.7839   -2.7648    8.3442 C   0  0  0  0  0  0  0  0  0  0  0  0
    0.3632   -2.3758    7.0981 C   0  0  0  0  0  0  0  0  0  0  0  0
   -0.7468   -1.5631    6.9779 C   0  0  0  0  0  0  0  0  0  0  0  0
   -1.0443   -1.2258    5.2188 S   0  0  0  0  0  0  0  0  0  0  0  0
   -2.1767    0.2080    5.1739 C   0  0  0  0  0  0  0  0  0  0  0  0
   -3.2521    0.4342    6.0326 C   0  0  0  0  0  0  0  0  0  0  0  0
   -3.9999    1.5742    5.9170 C   0  0  0  0  0  0  0  0  0  0  0  0
   -3.6503    2.4877    4.9179 C   0  0  0  0  0  0  0  0  0  0  0  0
   -2.5860    2.2474    4.0774 C   0  0  0  0  0  0  0  0  0  0  0  0
   -1.8306    1.1013    4.1926 C   0  0  0  0  0  0  0  0  0  0  0  0
   -4.5782    3.9945    4.7052 S   0  0  0  0  0  0  0  0  0  0  0  0
   -6.3474    3.6276    4.6493 C   0  0  0  0  0  0  0  0  0  0  0  0
  1  2  1  0
  2  3  1  0
  3  4  1  0
  4  5  1  0
  5  6  1  0
  6  7  1  0
  5  8  1  0
  8  9  1  0
  9 10  1  0
 10 11  2  0
 11 12  1  0
 12 13  2  0
 13 14  1  0
 14 15  2  0
 15 16  1  0
 16 17  1  0
 17 18  2  0
 18 19  1  0
 19 20  2  0
 20 21  1  0
 21 22  2  0
 20 23  1  0
 23 24  1  0
  7  2  1  0
 18  8  1  0
 15 10  1  0
 22 17  1  0
M  END
$$$$
