
     RDKit          3D

 22 24  0  0  0  0  0  0  0  0999 V2000
   -2.9910   -0.3021   10.0065 C   0  0  0  0  0  0  0  0  0  0  0  0
   -1.6036   -0.1975   10.5308 C   0  0  0  0  0  0  0  0  0  0  0  0
   -1.6585    0.1106   12.0177 C   0  0  0  0  0  0  0  0  0  0  0  0
   -0.8386   -1.4234   10.3923 N   0  0  0  0  0  0  0  0  0  0  0  0
    0.5631   -1.1908   10.2585 C   0  0  0  0  0  0  0  0  0  0  0  0
    0.9134   -0.8432    8.8306 C   0  0  0  0  0  0  0  0  0  0  0  0
    1.3625   -2.0009    8.0072 C   0  0  0  0  0  0  0  0  0  0  0  0
    2.7368   -2.1269    7.9539 O   0  0  0  0  0  0  0  0  0  0  0  0
    3.4921   -2.9561    7.2100 C   0  0  0  0  0  0  0  0  0  0  0  0
    3.2719   -3.3552    5.9179 C   0  0  0  0  0  0  0  0  0  0  0  0
    4.1279   -4.2239    5.2521 C   0  0  0  0  0  0  0  0  0  0  0  0
    5.2374   -4.7114    5.8936 C   0  0  0  0  0  0  0  0  0  0  0  0
    5.5052   -4.3425    7.1950 C   0  0  0  0  0  0  0  0  0  0  0  0
    4.6409   -3.4817    7.8269 C   0  0  0  0  0  0  0  0  0  0  0  0
    5.1222   -3.2612    9.1226 C   0  0  0  0  0  0  0  0  0  0  0  0
    4.6559   -2.4973   10.1681 C   0  0  0  0  0  0  0  0  0  0  0  0
    5.3658   -2.4850   11.3425 C   0  0  0  0  0  0  0  0  0  0  0  0
    6.5171   -3.2164   11.4785 C   0  0  0  0  0  0  0  0  0  0  0  0
    6.9660   -3.9720   10.4245 C   0  0  0  0  0  0  0  0  0  0  0  0
    6.2865   -4.0150    9.2267 C   0  0  0  0  0  0  0  0  0  0  0  0
    6.4906   -4.6519    8.0568 N   0  0  0  0  0  0  0  0  0  0  0  0
    2.0482    0.0208    8.9287 O   0  0  0  0  0  0  0  0  0  0  0  0
  1  2  1  0
  2  3  1  0
  2  4  1  0
  4  5  1  0
  5  6  1  0
  6  7  1  0
  7  8  1  0
  8  9  1  0
  9 10  2  0
 10 11  1  0
 11 12  2  0
 12 13  1  0
 13 14  2  0
 14 15  1  0
 15 16  2  0
 16 17  1  0
 17 18  2  0
 18 19  1  0
 19 20  2  0
 20 21  1  0
  6 22  1  0
 14  9  1  0
 21 13  1  0
 20 15  1  0
M  END
$$$$
