
     RDKit          3D

 22 24  0  0  0  0  0  0  0  0999 V2000
    0.4818    1.9163   11.6757 C   0  0  0  0  0  0  0  0  0  0  0  0
   -0.4588    0.8284   11.2984 C   0  0  0  0  0  0  0  0  0  0  0  0
   -1.8614    1.4028   11.1892 C   0  0  0  0  0  0  0  0  0  0  0  0
   -0.1599    0.2249   10.0124 N   0  0  0  0  0  0  0  0  0  0  0  0
   -0.3520   -1.1893   10.0049 C   0  0  0  0  0  0  0  0  0  0  0  0
    0.0542   -1.7768    8.6737 C   0  0  0  0  0  0  0  0  0  0  0  0
    1.3122   -1.2121    8.1092 C   0  0  0  0  0  0  0  0  0  0  0  0
    2.3808   -2.0834    8.1893 O   0  0  0  0  0  0  0  0  0  0  0  0
    3.0447   -2.7165    7.2046 C   0  0  0  0  0  0  0  0  0  0  0  0
    2.7127   -2.7774    5.8767 C   0  0  0  0  0  0  0  0  0  0  0  0
    3.4812   -3.4702    4.9493 C   0  0  0  0  0  0  0  0  0  0  0  0
    4.6154   -4.1238    5.3573 C   0  0  0  0  0  0  0  0  0  0  0  0
    4.9943   -4.0955    6.6829 C   0  0  0  0  0  0  0  0  0  0  0  0
    4.2147   -3.4018    7.5762 C   0  0  0  0  0  0  0  0  0  0  0  0
    4.8001   -3.5200    8.8421 C   0  0  0  0  0  0  0  0  0  0  0  0
    4.4440   -3.0309   10.0782 C   0  0  0  0  0  0  0  0  0  0  0  0
    5.2398   -3.3251   11.1569 C   0  0  0  0  0  0  0  0  0  0  0  0
    6.3681   -4.0901   11.0133 C   0  0  0  0  0  0  0  0  0  0  0  0
    6.7064   -4.5687    9.7724 C   0  0  0  0  0  0  0  0  0  0  0  0
    5.9379   -4.2991    8.6611 C   0  0  0  0  0  0  0  0  0  0  0  0
    6.0285   -4.6290    7.3577 N   0  0  0  0  0  0  0  0  0  0  0  0
   -0.9810   -1.3884    7.7673 O   0  0  0  0  0  0  0  0  0  0  0  0
  1  2  1  0
  2  3  1  0
  2  4  1  0
  4  5  1  0
  5  6  1  0
  6  7  1  0
  7  8  1  0
  8  9  1  0
  9 10  2  0
 10 11  1  0
 11 12  2  0
 12 13  1  0
 13 14  2  0
 14 15  1  0
 15 16  2  0
 16 17  1  0
 17 18  2  0
 18 19  1  0
 19 20  2  0
 20 21  1  0
  6 22  1  0
 14  9  1  0
 21 13  1  0
 20 15  1  0
M  END
$$$$
