
     RDKit          3D

 22 24  0  0  0  0  0  0  0  0999 V2000
   -2.8723   -0.5510   11.8495 C   0  0  0  0  0  0  0  0  0  0  0  0
   -2.0620    0.1444   10.8149 C   0  0  0  0  0  0  0  0  0  0  0  0
   -1.4626    1.4031   11.4194 C   0  0  0  0  0  0  0  0  0  0  0  0
   -0.9485   -0.6468   10.3235 N   0  0  0  0  0  0  0  0  0  0  0  0
   -0.3886   -0.1281    9.1175 C   0  0  0  0  0  0  0  0  0  0  0  0
    0.7019   -1.0368    8.6005 C   0  0  0  0  0  0  0  0  0  0  0  0
    1.8443   -1.2238    9.5387 C   0  0  0  0  0  0  0  0  0  0  0  0
    2.9117   -1.8878    8.9668 O   0  0  0  0  0  0  0  0  0  0  0  0
    4.0788   -2.2675    9.5190 C   0  0  0  0  0  0  0  0  0  0  0  0
    4.5542   -1.9577   10.7661 C   0  0  0  0  0  0  0  0  0  0  0  0
    5.7850   -2.4095   11.2260 C   0  0  0  0  0  0  0  0  0  0  0  0
    6.5676   -3.1936   10.4180 C   0  0  0  0  0  0  0  0  0  0  0  0
    6.1372   -3.5341    9.1529 C   0  0  0  0  0  0  0  0  0  0  0  0
    4.9155   -3.0728    8.7264 C   0  0  0  0  0  0  0  0  0  0  0  0
    4.7053   -3.5472    7.4265 C   0  0  0  0  0  0  0  0  0  0  0  0
    3.6651   -3.3913    6.5389 C   0  0  0  0  0  0  0  0  0  0  0  0
    3.7532   -3.9938    5.3090 C   0  0  0  0  0  0  0  0  0  0  0  0
    4.8521   -4.7372    4.9647 C   0  0  0  0  0  0  0  0  0  0  0  0
    5.8791   -4.8809    5.8636 C   0  0  0  0  0  0  0  0  0  0  0  0
    5.8346   -4.2946    7.1096 C   0  0  0  0  0  0  0  0  0  0  0  0
    6.6749   -4.2688    8.1627 N   0  0  0  0  0  0  0  0  0  0  0  0
    1.2443   -0.3549    7.4670 O   0  0  0  0  0  0  0  0  0  0  0  0
  1  2  1  0
  2  3  1  0
  2  4  1  0
  4  5  1  0
  5  6  1  0
  6  7  1  0
  7  8  1  0
  8  9  1  0
  9 10  2  0
 10 11  1  0
 11 12  2  0
 12 13  1  0
 13 14  2  0
 14 15  1  0
 15 16  2  0
 16 17  1  0
 17 18  2  0
 18 19  1  0
 19 20  2  0
 20 21  1  0
  6 22  1  0
 14  9  1  0
 21 13  1  0
 20 15  1  0
M  END
$$$$
