
     RDKit          3D

 22 24  0  0  0  0  0  0  0  0999 V2000
    2.2652    1.3002   11.6604 C   0  0  0  0  0  0  0  0  0  0  0  0
    1.0555    0.5589   11.2158 C   0  0  0  0  0  0  0  0  0  0  0  0
   -0.1729    1.4142   11.4775 C   0  0  0  0  0  0  0  0  0  0  0  0
    1.0515    0.2562    9.7961 N   0  0  0  0  0  0  0  0  0  0  0  0
    0.5084   -1.0311    9.5046 C   0  0  0  0  0  0  0  0  0  0  0  0
    0.3425   -1.2163    8.0145 C   0  0  0  0  0  0  0  0  0  0  0  0
    1.6090   -1.1140    7.2363 C   0  0  0  0  0  0  0  0  0  0  0  0
    2.5432   -2.0661    7.5944 O   0  0  0  0  0  0  0  0  0  0  0  0
    3.5260   -2.6196    6.8602 C   0  0  0  0  0  0  0  0  0  0  0  0
    3.5427   -2.8275    5.5061 C   0  0  0  0  0  0  0  0  0  0  0  0
    4.6217   -3.4156    4.8575 C   0  0  0  0  0  0  0  0  0  0  0  0
    5.7179   -3.8103    5.5805 C   0  0  0  0  0  0  0  0  0  0  0  0
    5.7521   -3.6255    6.9466 C   0  0  0  0  0  0  0  0  0  0  0  0
    4.6707   -3.0407    7.5595 C   0  0  0  0  0  0  0  0  0  0  0  0
    4.9417   -2.9631    8.9305 C   0  0  0  0  0  0  0  0  0  0  0  0
    4.2165   -2.4750    9.9934 C   0  0  0  0  0  0  0  0  0  0  0  0
    4.7644   -2.5409   11.2500 C   0  0  0  0  0  0  0  0  0  0  0  0
    6.0085   -3.0807   11.4496 C   0  0  0  0  0  0  0  0  0  0  0  0
    6.7161   -3.5622   10.3769 C   0  0  0  0  0  0  0  0  0  0  0  0
    6.2065   -3.5172    9.0976 C   0  0  0  0  0  0  0  0  0  0  0  0
    6.6671   -3.9050    7.8921 N   0  0  0  0  0  0  0  0  0  0  0  0
   -0.4578   -0.1097    7.5917 O   0  0  0  0  0  0  0  0  0  0  0  0
  1  2  1  0
  2  3  1  0
  2  4  1  0
  4  5  1  0
  5  6  1  0
  6  7  1  0
  7  8  1  0
  8  9  1  0
  9 10  2  0
 10 11  1  0
 11 12  2  0
 12 13  1  0
 13 14  2  0
 14 15  1  0
 15 16  2  0
 16 17  1  0
 17 18  2  0
 18 19  1  0
 19 20  2  0
 20 21  1  0
  6 22  1  0
 14  9  1  0
 21 13  1  0
 20 15  1  0
M  END
$$$$
