
     RDKit          3D

 22 24  0  0  0  0  0  0  0  0999 V2000
    0.3465    2.8451   10.8172 C   0  0  0  0  0  0  0  0  0  0  0  0
    0.7013    1.5597   11.4748 C   0  0  0  0  0  0  0  0  0  0  0  0
    0.2265    1.5946   12.9179 C   0  0  0  0  0  0  0  0  0  0  0  0
    0.0727    0.4034   10.8624 N   0  0  0  0  0  0  0  0  0  0  0  0
    0.7352   -0.0233    9.6725 C   0  0  0  0  0  0  0  0  0  0  0  0
    0.2008   -1.3596    9.2132 C   0  0  0  0  0  0  0  0  0  0  0  0
    0.7583   -2.5310    9.9461 C   0  0  0  0  0  0  0  0  0  0  0  0
    1.8992   -3.0434    9.3602 O   0  0  0  0  0  0  0  0  0  0  0  0
    2.7774   -3.9436    9.8397 C   0  0  0  0  0  0  0  0  0  0  0  0
    2.7667   -4.5501   11.0682 C   0  0  0  0  0  0  0  0  0  0  0  0
    3.7370   -5.4674   11.4528 C   0  0  0  0  0  0  0  0  0  0  0  0
    4.7503   -5.7899   10.5871 C   0  0  0  0  0  0  0  0  0  0  0  0
    4.8088   -5.2073    9.3386 C   0  0  0  0  0  0  0  0  0  0  0  0
    3.8350   -4.3045    8.9866 C   0  0  0  0  0  0  0  0  0  0  0  0
    4.1093   -3.8585    7.6886 C   0  0  0  0  0  0  0  0  0  0  0  0
    3.4691   -2.9656    6.8598 C   0  0  0  0  0  0  0  0  0  0  0  0
    3.9934   -2.7319    5.6132 C   0  0  0  0  0  0  0  0  0  0  0  0
    5.1316   -3.3714    5.1955 C   0  0  0  0  0  0  0  0  0  0  0  0
    5.7556   -4.2583    6.0366 C   0  0  0  0  0  0  0  0  0  0  0  0
    5.2657   -4.5244    7.2966 C   0  0  0  0  0  0  0  0  0  0  0  0
    5.6617   -5.3255    8.3052 N   0  0  0  0  0  0  0  0  0  0  0  0
    0.6585   -1.4970    7.8658 O   0  0  0  0  0  0  0  0  0  0  0  0
  1  2  1  0
  2  3  1  0
  2  4  1  0
  4  5  1  0
  5  6  1  0
  6  7  1  0
  7  8  1  0
  8  9  1  0
  9 10  2  0
 10 11  1  0
 11 12  2  0
 12 13  1  0
 13 14  2  0
 14 15  1  0
 15 16  2  0
 16 17  1  0
 17 18  2  0
 18 19  1  0
 19 20  2  0
 20 21  1  0
  6 22  1  0
 14  9  1  0
 21 13  1  0
 20 15  1  0
M  END
$$$$
