
     RDKit          3D

 22 24  0  0  0  0  0  0  0  0999 V2000
   -0.3652    1.6560   12.3104 C   0  0  0  0  0  0  0  0  0  0  0  0
   -1.0661    0.6144   11.5139 C   0  0  0  0  0  0  0  0  0  0  0  0
   -2.5584    0.9002   11.5297 C   0  0  0  0  0  0  0  0  0  0  0  0
   -0.6670    0.5868   10.1184 N   0  0  0  0  0  0  0  0  0  0  0  0
   -0.7388   -0.7187    9.5463 C   0  0  0  0  0  0  0  0  0  0  0  0
    0.5701   -1.0863    8.8877 C   0  0  0  0  0  0  0  0  0  0  0  0
    1.7124   -1.2419    9.8317 C   0  0  0  0  0  0  0  0  0  0  0  0
    2.8374   -1.7784    9.2368 O   0  0  0  0  0  0  0  0  0  0  0  0
    3.9909   -2.1856    9.7981 C   0  0  0  0  0  0  0  0  0  0  0  0
    4.4311   -1.9455   11.0732 C   0  0  0  0  0  0  0  0  0  0  0  0
    5.6510   -2.4194   11.5401 C   0  0  0  0  0  0  0  0  0  0  0  0
    6.4583   -3.1546   10.7107 C   0  0  0  0  0  0  0  0  0  0  0  0
    6.0635   -3.4241    9.4173 C   0  0  0  0  0  0  0  0  0  0  0  0
    4.8519   -2.9427    8.9844 C   0  0  0  0  0  0  0  0  0  0  0  0
    4.6787   -3.3434    7.6546 C   0  0  0  0  0  0  0  0  0  0  0  0
    3.6622   -3.1404    6.7493 C   0  0  0  0  0  0  0  0  0  0  0  0
    3.7859   -3.6722    5.4902 C   0  0  0  0  0  0  0  0  0  0  0  0
    4.8967   -4.3921    5.1346 C   0  0  0  0  0  0  0  0  0  0  0  0
    5.8998   -4.5837    6.0514 C   0  0  0  0  0  0  0  0  0  0  0  0
    5.8193   -4.0687    7.3268 C   0  0  0  0  0  0  0  0  0  0  0  0
    6.6308   -4.1003    8.4022 N   0  0  0  0  0  0  0  0  0  0  0  0
    0.9000    0.0380    8.0685 O   0  0  0  0  0  0  0  0  0  0  0  0
  1  2  1  0
  2  3  1  0
  2  4  1  0
  4  5  1  0
  5  6  1  0
  6  7  1  0
  7  8  1  0
  8  9  1  0
  9 10  2  0
 10 11  1  0
 11 12  2  0
 12 13  1  0
 13 14  2  0
 14 15  1  0
 15 16  2  0
 16 17  1  0
 17 18  2  0
 18 19  1  0
 19 20  2  0
 20 21  1  0
  6 22  1  0
 14  9  1  0
 21 13  1  0
 20 15  1  0
M  END
$$$$
