
     RDKit          3D

 22 24  0  0  0  0  0  0  0  0999 V2000
   -2.5554    0.4676    9.7286 C   0  0  0  0  0  0  0  0  0  0  0  0
   -1.3933   -0.0551    8.9625 C   0  0  0  0  0  0  0  0  0  0  0  0
   -1.6640    0.1131    7.4768 C   0  0  0  0  0  0  0  0  0  0  0  0
   -0.1545    0.6498    9.2377 N   0  0  0  0  0  0  0  0  0  0  0  0
    1.0009   -0.1697    9.0631 C   0  0  0  0  0  0  0  0  0  0  0  0
    1.8626   -0.1500   10.3039 C   0  0  0  0  0  0  0  0  0  0  0  0
    2.3332   -1.4920   10.7484 C   0  0  0  0  0  0  0  0  0  0  0  0
    3.2779   -2.0417    9.9042 O   0  0  0  0  0  0  0  0  0  0  0  0
    4.5005   -2.5273   10.1881 C   0  0  0  0  0  0  0  0  0  0  0  0
    5.1846   -2.4312   11.3714 C   0  0  0  0  0  0  0  0  0  0  0  0
    6.4519   -2.9743   11.5436 C   0  0  0  0  0  0  0  0  0  0  0  0
    7.0575   -3.6327   10.5045 C   0  0  0  0  0  0  0  0  0  0  0  0
    6.4134   -3.7569    9.2915 C   0  0  0  0  0  0  0  0  0  0  0  0
    5.1610   -3.2101    9.1516 C   0  0  0  0  0  0  0  0  0  0  0  0
    4.7222   -3.4649    7.8472 C   0  0  0  0  0  0  0  0  0  0  0  0
    3.5605   -3.1487    7.1806 C   0  0  0  0  0  0  0  0  0  0  0  0
    3.4214   -3.5469    5.8747 C   0  0  0  0  0  0  0  0  0  0  0  0
    4.4155   -4.2457    5.2406 C   0  0  0  0  0  0  0  0  0  0  0  0
    5.5668   -4.5516    5.9222 C   0  0  0  0  0  0  0  0  0  0  0  0
    5.7507   -4.1727    7.2341 C   0  0  0  0  0  0  0  0  0  0  0  0
    6.7503   -4.3327    8.1234 N   0  0  0  0  0  0  0  0  0  0  0  0
    1.0011    0.3183   11.3443 O   0  0  0  0  0  0  0  0  0  0  0  0
  1  2  1  0
  2  3  1  0
  2  4  1  0
  4  5  1  0
  5  6  1  0
  6  7  1  0
  7  8  1  0
  8  9  1  0
  9 10  2  0
 10 11  1  0
 11 12  2  0
 12 13  1  0
 13 14  2  0
 14 15  1  0
 15 16  2  0
 16 17  1  0
 17 18  2  0
 18 19  1  0
 19 20  2  0
 20 21  1  0
  6 22  1  0
 14  9  1  0
 21 13  1  0
 20 15  1  0
M  END
$$$$
