
     RDKit          3D

 22 24  0  0  0  0  0  0  0  0999 V2000
   -1.2738    2.4477   10.9186 C   0  0  0  0  0  0  0  0  0  0  0  0
   -0.5608    1.1763   11.2114 C   0  0  0  0  0  0  0  0  0  0  0  0
   -1.0517    0.6286   12.5411 C   0  0  0  0  0  0  0  0  0  0  0  0
   -0.7998    0.1383   10.2251 N   0  0  0  0  0  0  0  0  0  0  0  0
    0.2567    0.0241    9.2725 C   0  0  0  0  0  0  0  0  0  0  0  0
    0.6750   -1.4183    9.1087 C   0  0  0  0  0  0  0  0  0  0  0  0
    1.7437   -1.8603   10.0482 C   0  0  0  0  0  0  0  0  0  0  0  0
    2.8937   -2.2736    9.4046 O   0  0  0  0  0  0  0  0  0  0  0  0
    4.0629   -2.6905    9.9246 C   0  0  0  0  0  0  0  0  0  0  0  0
    4.5467   -2.4610   11.1858 C   0  0  0  0  0  0  0  0  0  0  0  0
    5.7788   -2.9444   11.6088 C   0  0  0  0  0  0  0  0  0  0  0  0
    6.5540   -3.6785   10.7484 C   0  0  0  0  0  0  0  0  0  0  0  0
    6.1149   -3.9375    9.4671 C   0  0  0  0  0  0  0  0  0  0  0  0
    4.8922   -3.4469    9.0779 C   0  0  0  0  0  0  0  0  0  0  0  0
    4.6726   -3.8380    7.7521 C   0  0  0  0  0  0  0  0  0  0  0  0
    3.6277   -3.6238    6.8825 C   0  0  0  0  0  0  0  0  0  0  0  0
    3.7064   -4.1480    5.6167 C   0  0  0  0  0  0  0  0  0  0  0  0
    4.8008   -4.8715    5.2196 C   0  0  0  0  0  0  0  0  0  0  0  0
    5.8328   -5.0744    6.1013 C   0  0  0  0  0  0  0  0  0  0  0  0
    5.7976   -4.5673    7.3820 C   0  0  0  0  0  0  0  0  0  0  0  0
    6.6442   -4.6102    8.4294 N   0  0  0  0  0  0  0  0  0  0  0  0
    1.2576   -1.4881    7.8050 O   0  0  0  0  0  0  0  0  0  0  0  0
  1  2  1  0
  2  3  1  0
  2  4  1  0
  4  5  1  0
  5  6  1  0
  6  7  1  0
  7  8  1  0
  8  9  1  0
  9 10  2  0
 10 11  1  0
 11 12  2  0
 12 13  1  0
 13 14  2  0
 14 15  1  0
 15 16  2  0
 16 17  1  0
 17 18  2  0
 18 19  1  0
 19 20  2  0
 20 21  1  0
  6 22  1  0
 14  9  1  0
 21 13  1  0
 20 15  1  0
M  END
$$$$
