
     RDKit          3D

 22 24  0  0  0  0  0  0  0  0999 V2000
    1.7318    0.9145   11.9032 C   0  0  0  0  0  0  0  0  0  0  0  0
    0.6075    0.1051   11.3634 C   0  0  0  0  0  0  0  0  0  0  0  0
   -0.7067    0.7465   11.7761 C   0  0  0  0  0  0  0  0  0  0  0  0
    0.5918    0.0306    9.9137 N   0  0  0  0  0  0  0  0  0  0  0  0
    0.7750   -1.2974    9.4242 C   0  0  0  0  0  0  0  0  0  0  0  0
    0.6456   -1.3350    7.9195 C   0  0  0  0  0  0  0  0  0  0  0  0
    1.9442   -1.3240    7.1890 C   0  0  0  0  0  0  0  0  0  0  0  0
    2.8637   -2.2157    7.7054 O   0  0  0  0  0  0  0  0  0  0  0  0
    3.7760   -2.9709    7.0661 C   0  0  0  0  0  0  0  0  0  0  0  0
    3.7480   -3.3919    5.7625 C   0  0  0  0  0  0  0  0  0  0  0  0
    4.7543   -4.1768    5.2130 C   0  0  0  0  0  0  0  0  0  0  0  0
    5.8215   -4.5552    5.9864 C   0  0  0  0  0  0  0  0  0  0  0  0
    5.8983   -4.1598    7.3052 C   0  0  0  0  0  0  0  0  0  0  0  0
    4.8886   -3.3837    7.8201 C   0  0  0  0  0  0  0  0  0  0  0  0
    5.1911   -3.1158    9.1602 C   0  0  0  0  0  0  0  0  0  0  0  0
    4.5351   -2.3974   10.1336 C   0  0  0  0  0  0  0  0  0  0  0  0
    5.0975   -2.3152   11.3828 C   0  0  0  0  0  0  0  0  0  0  0  0
    6.2884   -2.9337   11.6623 C   0  0  0  0  0  0  0  0  0  0  0  0
    6.9274   -3.6454   10.6781 C   0  0  0  0  0  0  0  0  0  0  0  0
    6.4007   -3.7554    9.4097 C   0  0  0  0  0  0  0  0  0  0  0  0
    6.8002   -4.3724    8.2804 N   0  0  0  0  0  0  0  0  0  0  0  0
    0.0005   -0.1070    7.5736 O   0  0  0  0  0  0  0  0  0  0  0  0
  1  2  1  0
  2  3  1  0
  2  4  1  0
  4  5  1  0
  5  6  1  0
  6  7  1  0
  7  8  1  0
  8  9  1  0
  9 10  2  0
 10 11  1  0
 11 12  2  0
 12 13  1  0
 13 14  2  0
 14 15  1  0
 15 16  2  0
 16 17  1  0
 17 18  2  0
 18 19  1  0
 19 20  2  0
 20 21  1  0
  6 22  1  0
 14  9  1  0
 21 13  1  0
 20 15  1  0
M  END
$$$$
