
     RDKit          3D

 22 24  0  0  0  0  0  0  0  0999 V2000
   -2.6676    0.9225    9.0679 C   0  0  0  0  0  0  0  0  0  0  0  0
   -2.0413    0.4641   10.3360 C   0  0  0  0  0  0  0  0  0  0  0  0
   -2.9750   -0.5192   11.0219 C   0  0  0  0  0  0  0  0  0  0  0  0
   -0.7820   -0.2314   10.1412 N   0  0  0  0  0  0  0  0  0  0  0  0
    0.3151    0.6563    9.9287 C   0  0  0  0  0  0  0  0  0  0  0  0
    1.6043   -0.1155    9.7714 C   0  0  0  0  0  0  0  0  0  0  0  0
    1.7216   -0.8641    8.4885 C   0  0  0  0  0  0  0  0  0  0  0  0
    2.8840   -1.6043    8.3976 O   0  0  0  0  0  0  0  0  0  0  0  0
    3.3808   -2.2932    7.3536 C   0  0  0  0  0  0  0  0  0  0  0  0
    2.8894   -2.3449    6.0757 C   0  0  0  0  0  0  0  0  0  0  0  0
    3.4924   -3.1002    5.0774 C   0  0  0  0  0  0  0  0  0  0  0  0
    4.6195   -3.8277    5.3610 C   0  0  0  0  0  0  0  0  0  0  0  0
    5.1548   -3.8118    6.6317 C   0  0  0  0  0  0  0  0  0  0  0  0
    4.5368   -3.0553    7.5975 C   0  0  0  0  0  0  0  0  0  0  0  0
    5.2594   -3.2008    8.7873 C   0  0  0  0  0  0  0  0  0  0  0  0
    5.0877   -2.6744   10.0473 C   0  0  0  0  0  0  0  0  0  0  0  0
    5.9843   -3.0123   11.0298 C   0  0  0  0  0  0  0  0  0  0  0  0
    7.0321   -3.8565   10.7685 C   0  0  0  0  0  0  0  0  0  0  0  0
    7.1864   -4.3712    9.5057 C   0  0  0  0  0  0  0  0  0  0  0  0
    6.3113   -4.0601    8.4880 C   0  0  0  0  0  0  0  0  0  0  0  0
    6.2229   -4.4097    7.1897 N   0  0  0  0  0  0  0  0  0  0  0  0
    1.5649   -1.1127   10.7951 O   0  0  0  0  0  0  0  0  0  0  0  0
  1  2  1  0
  2  3  1  0
  2  4  1  0
  4  5  1  0
  5  6  1  0
  6  7  1  0
  7  8  1  0
  8  9  1  0
  9 10  2  0
 10 11  1  0
 11 12  2  0
 12 13  1  0
 13 14  2  0
 14 15  1  0
 15 16  2  0
 16 17  1  0
 17 18  2  0
 18 19  1  0
 19 20  2  0
 20 21  1  0
  6 22  1  0
 14  9  1  0
 21 13  1  0
 20 15  1  0
M  END
$$$$
