
     RDKit          3D

 22 24  0  0  0  0  0  0  0  0999 V2000
    0.9982    1.6089   11.6268 C   0  0  0  0  0  0  0  0  0  0  0  0
    0.4771    0.2225   11.4975 C   0  0  0  0  0  0  0  0  0  0  0  0
   -0.7996    0.0957   12.3117 C   0  0  0  0  0  0  0  0  0  0  0  0
    0.1343   -0.1422   10.1349 N   0  0  0  0  0  0  0  0  0  0  0  0
    0.7278   -1.3733    9.7238 C   0  0  0  0  0  0  0  0  0  0  0  0
    0.2862   -1.7391    8.3262 C   0  0  0  0  0  0  0  0  0  0  0  0
    1.3769   -1.7225    7.3112 C   0  0  0  0  0  0  0  0  0  0  0  0
    2.5217   -2.3679    7.7357 O   0  0  0  0  0  0  0  0  0  0  0  0
    3.4410   -3.0404    7.0188 C   0  0  0  0  0  0  0  0  0  0  0  0
    3.3840   -3.3780    5.6921 C   0  0  0  0  0  0  0  0  0  0  0  0
    4.4017   -4.0817    5.0598 C   0  0  0  0  0  0  0  0  0  0  0  0
    5.5104   -4.4621    5.7713 C   0  0  0  0  0  0  0  0  0  0  0  0
    5.6177   -4.1488    7.1099 C   0  0  0  0  0  0  0  0  0  0  0  0
    4.5957   -3.4519    7.7073 C   0  0  0  0  0  0  0  0  0  0  0  0
    4.9343   -3.2572    9.0514 C   0  0  0  0  0  0  0  0  0  0  0  0
    4.2843   -2.6318   10.0907 C   0  0  0  0  0  0  0  0  0  0  0  0
    4.8869   -2.6053   11.3235 C   0  0  0  0  0  0  0  0  0  0  0  0
    6.1114   -3.1880   11.5227 C   0  0  0  0  0  0  0  0  0  0  0  0
    6.7439   -3.8070   10.4737 C   0  0  0  0  0  0  0  0  0  0  0  0
    6.1774   -3.8584    9.2188 C   0  0  0  0  0  0  0  0  0  0  0  0
    6.5616   -4.3840    8.0390 N   0  0  0  0  0  0  0  0  0  0  0  0
   -0.6139   -0.6981    7.9390 O   0  0  0  0  0  0  0  0  0  0  0  0
  1  2  1  0
  2  3  1  0
  2  4  1  0
  4  5  1  0
  5  6  1  0
  6  7  1  0
  7  8  1  0
  8  9  1  0
  9 10  2  0
 10 11  1  0
 11 12  2  0
 12 13  1  0
 13 14  2  0
 14 15  1  0
 15 16  2  0
 16 17  1  0
 17 18  2  0
 18 19  1  0
 19 20  2  0
 20 21  1  0
  6 22  1  0
 14  9  1  0
 21 13  1  0
 20 15  1  0
M  END
$$$$
