
     RDKit          3D

 22 24  0  0  0  0  0  0  0  0999 V2000
   -2.5727    0.9526    7.7449 C   0  0  0  0  0  0  0  0  0  0  0  0
   -2.1758    0.4404    9.0831 C   0  0  0  0  0  0  0  0  0  0  0  0
   -3.2359   -0.5303    9.5758 C   0  0  0  0  0  0  0  0  0  0  0  0
   -0.9212   -0.2897    9.0746 N   0  0  0  0  0  0  0  0  0  0  0  0
   -0.0539    0.0844   10.1445 C   0  0  0  0  0  0  0  0  0  0  0  0
    1.3610   -0.3672    9.8685 C   0  0  0  0  0  0  0  0  0  0  0  0
    1.5269   -1.1342    8.6019 C   0  0  0  0  0  0  0  0  0  0  0  0
    2.7400   -1.7892    8.5203 O   0  0  0  0  0  0  0  0  0  0  0  0
    3.2496   -2.5252    7.5153 C   0  0  0  0  0  0  0  0  0  0  0  0
    2.7238   -2.7094    6.2635 C   0  0  0  0  0  0  0  0  0  0  0  0
    3.3451   -3.5009    5.3054 C   0  0  0  0  0  0  0  0  0  0  0  0
    4.5266   -4.1297    5.6035 C   0  0  0  0  0  0  0  0  0  0  0  0
    5.0984   -3.9788    6.8493 C   0  0  0  0  0  0  0  0  0  0  0  0
    4.4610   -3.1896    7.7755 C   0  0  0  0  0  0  0  0  0  0  0  0
    5.2278   -3.1936    8.9464 C   0  0  0  0  0  0  0  0  0  0  0  0
    5.0601   -2.5813   10.1674 C   0  0  0  0  0  0  0  0  0  0  0  0
    6.0070   -2.7819   11.1403 C   0  0  0  0  0  0  0  0  0  0  0  0
    7.1005   -3.5750   10.9074 C   0  0  0  0  0  0  0  0  0  0  0  0
    7.2501   -4.1770    9.6832 C   0  0  0  0  0  0  0  0  0  0  0  0
    6.3253   -4.0044    8.6766 C   0  0  0  0  0  0  0  0  0  0  0  0
    6.2207   -4.4606    7.4130 N   0  0  0  0  0  0  0  0  0  0  0  0
    1.6656   -1.2892   10.9178 O   0  0  0  0  0  0  0  0  0  0  0  0
  1  2  1  0
  2  3  1  0
  2  4  1  0
  4  5  1  0
  5  6  1  0
  6  7  1  0
  7  8  1  0
  8  9  1  0
  9 10  2  0
 10 11  1  0
 11 12  2  0
 12 13  1  0
 13 14  2  0
 14 15  1  0
 15 16  2  0
 16 17  1  0
 17 18  2  0
 18 19  1  0
 19 20  2  0
 20 21  1  0
  6 22  1  0
 14  9  1  0
 21 13  1  0
 20 15  1  0
M  END
$$$$
