
     RDKit          3D

 22 24  0  0  0  0  0  0  0  0999 V2000
   -3.2736   -1.2698    9.6734 C   0  0  0  0  0  0  0  0  0  0  0  0
   -2.4563   -0.0880    9.2913 C   0  0  0  0  0  0  0  0  0  0  0  0
   -2.4619    0.9091   10.4379 C   0  0  0  0  0  0  0  0  0  0  0  0
   -1.0645   -0.4069    9.0297 N   0  0  0  0  0  0  0  0  0  0  0  0
   -0.2316   -0.2386   10.1763 C   0  0  0  0  0  0  0  0  0  0  0  0
    1.1968   -0.6144    9.8592 C   0  0  0  0  0  0  0  0  0  0  0  0
    1.3412   -1.6297    8.7781 C   0  0  0  0  0  0  0  0  0  0  0  0
    2.6570   -1.8758    8.4385 O   0  0  0  0  0  0  0  0  0  0  0  0
    3.1581   -2.6708    7.4750 C   0  0  0  0  0  0  0  0  0  0  0  0
    2.6396   -2.9024    6.2281 C   0  0  0  0  0  0  0  0  0  0  0  0
    3.2506   -3.7532    5.3152 C   0  0  0  0  0  0  0  0  0  0  0  0
    4.4140   -4.3943    5.6552 C   0  0  0  0  0  0  0  0  0  0  0  0
    4.9778   -4.1974    6.8982 C   0  0  0  0  0  0  0  0  0  0  0  0
    4.3509   -3.3500    7.7791 C   0  0  0  0  0  0  0  0  0  0  0  0
    5.1067   -3.3158    8.9567 C   0  0  0  0  0  0  0  0  0  0  0  0
    4.9423   -2.6420   10.1453 C   0  0  0  0  0  0  0  0  0  0  0  0
    5.8753   -2.8178   11.1363 C   0  0  0  0  0  0  0  0  0  0  0  0
    6.9516   -3.6464   10.9528 C   0  0  0  0  0  0  0  0  0  0  0  0
    7.0981   -4.3097    9.7603 C   0  0  0  0  0  0  0  0  0  0  0  0
    6.1869   -4.1640    8.7372 C   0  0  0  0  0  0  0  0  0  0  0  0
    6.0831   -4.6776    7.4957 N   0  0  0  0  0  0  0  0  0  0  0  0
    1.6847   -1.2456   11.0456 O   0  0  0  0  0  0  0  0  0  0  0  0
  1  2  1  0
  2  3  1  0
  2  4  1  0
  4  5  1  0
  5  6  1  0
  6  7  1  0
  7  8  1  0
  8  9  1  0
  9 10  2  0
 10 11  1  0
 11 12  2  0
 12 13  1  0
 13 14  2  0
 14 15  1  0
 15 16  2  0
 16 17  1  0
 17 18  2  0
 18 19  1  0
 19 20  2  0
 20 21  1  0
  6 22  1  0
 14  9  1  0
 21 13  1  0
 20 15  1  0
M  END
$$$$
