
     RDKit          3D

 22 24  0  0  0  0  0  0  0  0999 V2000
   -2.3439   -1.6857    9.5322 C   0  0  0  0  0  0  0  0  0  0  0  0
   -1.3211   -1.0891    8.6330 C   0  0  0  0  0  0  0  0  0  0  0  0
   -1.9872   -0.0500    7.7467 C   0  0  0  0  0  0  0  0  0  0  0  0
   -0.2562   -0.4034    9.3423 N   0  0  0  0  0  0  0  0  0  0  0  0
    0.9275   -1.1915    9.4629 C   0  0  0  0  0  0  0  0  0  0  0  0
    2.0446   -0.3865   10.0846 C   0  0  0  0  0  0  0  0  0  0  0  0
    3.1412   -1.2062   10.6726 C   0  0  0  0  0  0  0  0  0  0  0  0
    3.8922   -1.8683    9.7213 O   0  0  0  0  0  0  0  0  0  0  0  0
    5.0501   -2.5402    9.8603 C   0  0  0  0  0  0  0  0  0  0  0  0
    5.8384   -2.6258   10.9776 C   0  0  0  0  0  0  0  0  0  0  0  0
    7.0224   -3.3528   10.9981 C   0  0  0  0  0  0  0  0  0  0  0  0
    7.4347   -4.0144    9.8701 C   0  0  0  0  0  0  0  0  0  0  0  0
    6.6790   -3.9600    8.7179 C   0  0  0  0  0  0  0  0  0  0  0  0
    5.5131   -3.2337    8.7284 C   0  0  0  0  0  0  0  0  0  0  0  0
    4.9329   -3.3308    7.4584 C   0  0  0  0  0  0  0  0  0  0  0  0
    3.7779   -2.8075    6.9235 C   0  0  0  0  0  0  0  0  0  0  0  0
    3.4719   -3.0882    5.6155 C   0  0  0  0  0  0  0  0  0  0  0  0
    4.2955   -3.8732    4.8512 C   0  0  0  0  0  0  0  0  0  0  0  0
    5.4430   -4.3858    5.4026 C   0  0  0  0  0  0  0  0  0  0  0  0
    5.7908   -4.1309    6.7111 C   0  0  0  0  0  0  0  0  0  0  0  0
    6.8278   -4.4929    7.4918 N   0  0  0  0  0  0  0  0  0  0  0  0
    1.4402    0.2932   11.1876 O   0  0  0  0  0  0  0  0  0  0  0  0
  1  2  1  0
  2  3  1  0
  2  4  1  0
  4  5  1  0
  5  6  1  0
  6  7  1  0
  7  8  1  0
  8  9  1  0
  9 10  2  0
 10 11  1  0
 11 12  2  0
 12 13  1  0
 13 14  2  0
 14 15  1  0
 15 16  2  0
 16 17  1  0
 17 18  2  0
 18 19  1  0
 19 20  2  0
 20 21  1  0
  6 22  1  0
 14  9  1  0
 21 13  1  0
 20 15  1  0
M  END
$$$$
