
     RDKit          3D

 22 24  0  0  0  0  0  0  0  0999 V2000
   -3.2316    0.7416    9.6422 C   0  0  0  0  0  0  0  0  0  0  0  0
   -1.9935    0.0600   10.1037 C   0  0  0  0  0  0  0  0  0  0  0  0
   -2.3714   -1.0570   11.0621 C   0  0  0  0  0  0  0  0  0  0  0  0
   -1.2381   -0.5578    9.0290 N   0  0  0  0  0  0  0  0  0  0  0  0
    0.0667   -0.0001    8.8758 C   0  0  0  0  0  0  0  0  0  0  0  0
    1.1277   -1.0265    9.1965 C   0  0  0  0  0  0  0  0  0  0  0  0
    1.4435   -1.9568    8.0763 C   0  0  0  0  0  0  0  0  0  0  0  0
    2.7455   -2.4164    8.1047 O   0  0  0  0  0  0  0  0  0  0  0  0
    3.3933   -3.2076    7.2295 C   0  0  0  0  0  0  0  0  0  0  0  0
    3.0315   -3.5014    5.9411 C   0  0  0  0  0  0  0  0  0  0  0  0
    3.7857   -4.3407    5.1303 C   0  0  0  0  0  0  0  0  0  0  0  0
    4.9356   -4.9061    5.6183 C   0  0  0  0  0  0  0  0  0  0  0  0
    5.3445   -4.6445    6.9090 C   0  0  0  0  0  0  0  0  0  0  0  0
    4.5785   -3.8103    7.6864 C   0  0  0  0  0  0  0  0  0  0  0  0
    5.1938   -3.7021    8.9389 C   0  0  0  0  0  0  0  0  0  0  0  0
    4.8612   -3.0069   10.0790 C   0  0  0  0  0  0  0  0  0  0  0  0
    5.6845   -3.1034   11.1728 C   0  0  0  0  0  0  0  0  0  0  0  0
    6.8169   -3.8748   11.1374 C   0  0  0  0  0  0  0  0  0  0  0  0
    7.1317   -4.5606    9.9911 C   0  0  0  0  0  0  0  0  0  0  0  0
    6.3352   -4.4938    8.8688 C   0  0  0  0  0  0  0  0  0  0  0  0
    6.3992   -5.0457    7.6411 N   0  0  0  0  0  0  0  0  0  0  0  0
    0.5550   -1.8415   10.2221 O   0  0  0  0  0  0  0  0  0  0  0  0
  1  2  1  0
  2  3  1  0
  2  4  1  0
  4  5  1  0
  5  6  1  0
  6  7  1  0
  7  8  1  0
  8  9  1  0
  9 10  2  0
 10 11  1  0
 11 12  2  0
 12 13  1  0
 13 14  2  0
 14 15  1  0
 15 16  2  0
 16 17  1  0
 17 18  2  0
 18 19  1  0
 19 20  2  0
 20 21  1  0
  6 22  1  0
 14  9  1  0
 21 13  1  0
 20 15  1  0
M  END
$$$$
