
     RDKit          3D

 22 24  0  0  0  0  0  0  0  0999 V2000
   -2.5380   -2.4193   11.0508 C   0  0  0  0  0  0  0  0  0  0  0  0
   -1.7525   -1.9757    9.8689 C   0  0  0  0  0  0  0  0  0  0  0  0
   -2.6132   -1.0550    9.0200 C   0  0  0  0  0  0  0  0  0  0  0  0
   -0.5612   -1.2220   10.2154 N   0  0  0  0  0  0  0  0  0  0  0  0
    0.3777   -1.1443    9.1435 C   0  0  0  0  0  0  0  0  0  0  0  0
    1.6463   -0.4579    9.5928 C   0  0  0  0  0  0  0  0  0  0  0  0
    2.5607   -1.3176   10.3958 C   0  0  0  0  0  0  0  0  0  0  0  0
    3.4215   -2.0670    9.6181 O   0  0  0  0  0  0  0  0  0  0  0  0
    4.5598   -2.6961    9.9641 C   0  0  0  0  0  0  0  0  0  0  0  0
    5.2207   -2.6306   11.1625 C   0  0  0  0  0  0  0  0  0  0  0  0
    6.3982   -3.3284   11.4012 C   0  0  0  0  0  0  0  0  0  0  0  0
    6.9352   -4.1154   10.4150 C   0  0  0  0  0  0  0  0  0  0  0  0
    6.3108   -4.2157    9.1896 C   0  0  0  0  0  0  0  0  0  0  0  0
    5.1477   -3.5144    8.9835 C   0  0  0  0  0  0  0  0  0  0  0  0
    4.7114   -3.7762    7.6796 C   0  0  0  0  0  0  0  0  0  0  0  0
    3.6201   -3.3429    6.9618 C   0  0  0  0  0  0  0  0  0  0  0  0
    3.4613   -3.7866    5.6729 C   0  0  0  0  0  0  0  0  0  0  0  0
    4.3675   -4.6444    5.1055 C   0  0  0  0  0  0  0  0  0  0  0  0
    5.4494   -5.0653    5.8375 C   0  0  0  0  0  0  0  0  0  0  0  0
    5.6499   -4.6462    7.1347 C   0  0  0  0  0  0  0  0  0  0  0  0
    6.5961   -4.8916    8.0622 N   0  0  0  0  0  0  0  0  0  0  0  0
    1.2125    0.5750   10.4811 O   0  0  0  0  0  0  0  0  0  0  0  0
  1  2  1  0
  2  3  1  0
  2  4  1  0
  4  5  1  0
  5  6  1  0
  6  7  1  0
  7  8  1  0
  8  9  1  0
  9 10  2  0
 10 11  1  0
 11 12  2  0
 12 13  1  0
 13 14  2  0
 14 15  1  0
 15 16  2  0
 16 17  1  0
 17 18  2  0
 18 19  1  0
 19 20  2  0
 20 21  1  0
  6 22  1  0
 14  9  1  0
 21 13  1  0
 20 15  1  0
M  END
$$$$
