
     RDKit          3D

 22 24  0  0  0  0  0  0  0  0999 V2000
    1.5302    1.6475   11.6632 C   0  0  0  0  0  0  0  0  0  0  0  0
    0.7647    0.3895   11.4584 C   0  0  0  0  0  0  0  0  0  0  0  0
   -0.5753    0.5050   12.1654 C   0  0  0  0  0  0  0  0  0  0  0  0
    0.4720    0.1107   10.0642 N   0  0  0  0  0  0  0  0  0  0  0  0
    0.4050   -1.2863    9.7797 C   0  0  0  0  0  0  0  0  0  0  0  0
    0.1852   -1.5212    8.3036 C   0  0  0  0  0  0  0  0  0  0  0  0
    1.4266   -1.4753    7.4809 C   0  0  0  0  0  0  0  0  0  0  0  0
    2.4085   -2.3345    7.9336 O   0  0  0  0  0  0  0  0  0  0  0  0
    3.2808   -3.0826    7.2331 C   0  0  0  0  0  0  0  0  0  0  0  0
    3.2079   -3.4342    5.9109 C   0  0  0  0  0  0  0  0  0  0  0  0
    4.1754   -4.2195    5.2961 C   0  0  0  0  0  0  0  0  0  0  0  0
    5.2486   -4.6696    6.0212 C   0  0  0  0  0  0  0  0  0  0  0  0
    5.3698   -4.3458    7.3561 C   0  0  0  0  0  0  0  0  0  0  0  0
    4.3977   -3.5674    7.9360 C   0  0  0  0  0  0  0  0  0  0  0  0
    4.7409   -3.3787    9.2797 C   0  0  0  0  0  0  0  0  0  0  0  0
    4.1317   -2.6925   10.3054 C   0  0  0  0  0  0  0  0  0  0  0  0
    4.7265   -2.6923   11.5421 C   0  0  0  0  0  0  0  0  0  0  0  0
    5.9038   -3.3601   11.7587 C   0  0  0  0  0  0  0  0  0  0  0  0
    6.4960   -4.0387   10.7232 C   0  0  0  0  0  0  0  0  0  0  0  0
    5.9355   -4.0666    9.4649 C   0  0  0  0  0  0  0  0  0  0  0  0
    6.2879   -4.6359    8.2955 N   0  0  0  0  0  0  0  0  0  0  0  0
   -0.6054   -0.4129    7.8671 O   0  0  0  0  0  0  0  0  0  0  0  0
  1  2  1  0
  2  3  1  0
  2  4  1  0
  4  5  1  0
  5  6  1  0
  6  7  1  0
  7  8  1  0
  8  9  1  0
  9 10  2  0
 10 11  1  0
 11 12  2  0
 12 13  1  0
 13 14  2  0
 14 15  1  0
 15 16  2  0
 16 17  1  0
 17 18  2  0
 18 19  1  0
 19 20  2  0
 20 21  1  0
  6 22  1  0
 14  9  1  0
 21 13  1  0
 20 15  1  0
M  END
$$$$
