
     RDKit          3D

 22 24  0  0  0  0  0  0  0  0999 V2000
   -2.0465   -1.6737   10.2834 C   0  0  0  0  0  0  0  0  0  0  0  0
   -0.7582   -0.9446   10.4224 C   0  0  0  0  0  0  0  0  0  0  0  0
   -0.6766   -0.3456   11.8165 C   0  0  0  0  0  0  0  0  0  0  0  0
    0.4078   -1.7959   10.2712 N   0  0  0  0  0  0  0  0  0  0  0  0
    1.4108   -1.2200    9.4350 C   0  0  0  0  0  0  0  0  0  0  0  0
    0.9016   -1.0607    8.0216 C   0  0  0  0  0  0  0  0  0  0  0  0
    1.5492   -1.9629    7.0282 C   0  0  0  0  0  0  0  0  0  0  0  0
    2.7859   -2.4210    7.4380 O   0  0  0  0  0  0  0  0  0  0  0  0
    3.6473   -3.2405    6.8073 C   0  0  0  0  0  0  0  0  0  0  0  0
    3.5271   -3.7733    5.5507 C   0  0  0  0  0  0  0  0  0  0  0  0
    4.4882   -4.6157    5.0055 C   0  0  0  0  0  0  0  0  0  0  0  0
    5.6034   -4.9386    5.7350 C   0  0  0  0  0  0  0  0  0  0  0  0
    5.7731   -4.4305    7.0056 C   0  0  0  0  0  0  0  0  0  0  0  0
    4.8062   -3.5999    7.5176 C   0  0  0  0  0  0  0  0  0  0  0  0
    5.2016   -3.2198    8.8053 C   0  0  0  0  0  0  0  0  0  0  0  0
    4.6187   -2.4111    9.7540 C   0  0  0  0  0  0  0  0  0  0  0  0
    5.2659   -2.2272   10.9501 C   0  0  0  0  0  0  0  0  0  0  0  0
    6.4691   -2.8338   11.2016 C   0  0  0  0  0  0  0  0  0  0  0  0
    7.0344   -3.6366   10.2428 C   0  0  0  0  0  0  0  0  0  0  0  0
    6.4213   -3.8503    9.0276 C   0  0  0  0  0  0  0  0  0  0  0  0
    6.7383   -4.5685    7.9324 N   0  0  0  0  0  0  0  0  0  0  0  0
    1.2797    0.2642    7.6401 O   0  0  0  0  0  0  0  0  0  0  0  0
  1  2  1  0
  2  3  1  0
  2  4  1  0
  4  5  1  0
  5  6  1  0
  6  7  1  0
  7  8  1  0
  8  9  1  0
  9 10  2  0
 10 11  1  0
 11 12  2  0
 12 13  1  0
 13 14  2  0
 14 15  1  0
 15 16  2  0
 16 17  1  0
 17 18  2  0
 18 19  1  0
 19 20  2  0
 20 21  1  0
  6 22  1  0
 14  9  1  0
 21 13  1  0
 20 15  1  0
M  END
$$$$
