
     RDKit          3D

 22 24  0  0  0  0  0  0  0  0999 V2000
   -1.1654    1.1917   11.0892 C   0  0  0  0  0  0  0  0  0  0  0  0
    0.0885    0.4045   10.9526 C   0  0  0  0  0  0  0  0  0  0  0  0
    0.5989    0.0425   12.3373 C   0  0  0  0  0  0  0  0  0  0  0  0
   -0.0888   -0.8472   10.2389 N   0  0  0  0  0  0  0  0  0  0  0  0
    1.0411   -1.1951    9.4395 C   0  0  0  0  0  0  0  0  0  0  0  0
    0.7794   -0.8908    7.9830 C   0  0  0  0  0  0  0  0  0  0  0  0
    1.4284   -1.8347    7.0302 C   0  0  0  0  0  0  0  0  0  0  0  0
    2.7284   -2.1461    7.3772 O   0  0  0  0  0  0  0  0  0  0  0  0
    3.6146   -2.9417    6.7502 C   0  0  0  0  0  0  0  0  0  0  0  0
    3.5373   -3.4381    5.4755 C   0  0  0  0  0  0  0  0  0  0  0  0
    4.5207   -4.2584    4.9363 C   0  0  0  0  0  0  0  0  0  0  0  0
    5.6147   -4.5960    5.6908 C   0  0  0  0  0  0  0  0  0  0  0  0
    5.7412   -4.1245    6.9804 C   0  0  0  0  0  0  0  0  0  0  0  0
    4.7531   -3.3149    7.4857 C   0  0  0  0  0  0  0  0  0  0  0  0
    5.1056   -2.9704    8.7957 C   0  0  0  0  0  0  0  0  0  0  0  0
    4.4879   -2.1933    9.7489 C   0  0  0  0  0  0  0  0  0  0  0  0
    5.0962   -2.0408   10.9695 C   0  0  0  0  0  0  0  0  0  0  0  0
    6.2951   -2.6474   11.2409 C   0  0  0  0  0  0  0  0  0  0  0  0
    6.8955   -3.4184   10.2773 C   0  0  0  0  0  0  0  0  0  0  0  0
    6.3220   -3.6000    9.0378 C   0  0  0  0  0  0  0  0  0  0  0  0
    6.6779   -4.2839    7.9326 N   0  0  0  0  0  0  0  0  0  0  0  0
    1.4022    0.3753    7.7528 O   0  0  0  0  0  0  0  0  0  0  0  0
  1  2  1  0
  2  3  1  0
  2  4  1  0
  4  5  1  0
  5  6  1  0
  6  7  1  0
  7  8  1  0
  8  9  1  0
  9 10  2  0
 10 11  1  0
 11 12  2  0
 12 13  1  0
 13 14  2  0
 14 15  1  0
 15 16  2  0
 16 17  1  0
 17 18  2  0
 18 19  1  0
 19 20  2  0
 20 21  1  0
  6 22  1  0
 14  9  1  0
 21 13  1  0
 20 15  1  0
M  END
$$$$
