
     RDKit          3D

 22 24  0  0  0  0  0  0  0  0999 V2000
    0.0369    2.0554   11.5775 C   0  0  0  0  0  0  0  0  0  0  0  0
   -0.2817    0.6333   11.8719 C   0  0  0  0  0  0  0  0  0  0  0  0
   -1.5835    0.5694   12.6531 C   0  0  0  0  0  0  0  0  0  0  0  0
   -0.4757   -0.1747   10.6817 N   0  0  0  0  0  0  0  0  0  0  0  0
    0.7445   -0.7065   10.1668 C   0  0  0  0  0  0  0  0  0  0  0  0
    0.4826   -1.5671    8.9532 C   0  0  0  0  0  0  0  0  0  0  0  0
    1.5313   -1.4801    7.8983 C   0  0  0  0  0  0  0  0  0  0  0  0
    2.6037   -2.3187    8.1303 O   0  0  0  0  0  0  0  0  0  0  0  0
    3.3638   -2.9993    7.2526 C   0  0  0  0  0  0  0  0  0  0  0  0
    3.0963   -3.2491    5.9322 C   0  0  0  0  0  0  0  0  0  0  0  0
    3.9633   -3.9720    5.1220 C   0  0  0  0  0  0  0  0  0  0  0  0
    5.1327   -4.4626    5.6434 C   0  0  0  0  0  0  0  0  0  0  0  0
    5.4499   -4.2409    6.9669 C   0  0  0  0  0  0  0  0  0  0  0  0
    4.5733   -3.5222    7.7429 C   0  0  0  0  0  0  0  0  0  0  0  0
    5.1115   -3.4329    9.0318 C   0  0  0  0  0  0  0  0  0  0  0  0
    4.6599   -2.8357   10.1865 C   0  0  0  0  0  0  0  0  0  0  0  0
    5.4314   -2.9229   11.3182 C   0  0  0  0  0  0  0  0  0  0  0  0
    6.6287   -3.5899   11.3059 C   0  0  0  0  0  0  0  0  0  0  0  0
    7.0621   -4.1790   10.1445 C   0  0  0  0  0  0  0  0  0  0  0  0
    6.3214   -4.1174    8.9844 C   0  0  0  0  0  0  0  0  0  0  0  0
    6.4974   -4.5903    7.7350 N   0  0  0  0  0  0  0  0  0  0  0  0
   -0.7007   -1.0232    8.3633 O   0  0  0  0  0  0  0  0  0  0  0  0
  1  2  1  0
  2  3  1  0
  2  4  1  0
  4  5  1  0
  5  6  1  0
  6  7  1  0
  7  8  1  0
  8  9  1  0
  9 10  2  0
 10 11  1  0
 11 12  2  0
 12 13  1  0
 13 14  2  0
 14 15  1  0
 15 16  2  0
 16 17  1  0
 17 18  2  0
 18 19  1  0
 19 20  2  0
 20 21  1  0
  6 22  1  0
 14  9  1  0
 21 13  1  0
 20 15  1  0
M  END
$$$$
