
     RDKit          3D

 22 24  0  0  0  0  0  0  0  0999 V2000
   -2.5855    1.9769    9.6365 C   0  0  0  0  0  0  0  0  0  0  0  0
   -1.8759    0.9731   10.4730 C   0  0  0  0  0  0  0  0  0  0  0  0
   -2.8974    0.0333   11.0912 C   0  0  0  0  0  0  0  0  0  0  0  0
   -0.9534    0.1417    9.7214 N   0  0  0  0  0  0  0  0  0  0  0  0
   -0.1756   -0.7173   10.5543 C   0  0  0  0  0  0  0  0  0  0  0  0
    0.8901   -1.4221    9.7482 C   0  0  0  0  0  0  0  0  0  0  0  0
    2.2468   -1.3955   10.3638 C   0  0  0  0  0  0  0  0  0  0  0  0
    3.2039   -2.0252    9.5926 O   0  0  0  0  0  0  0  0  0  0  0  0
    4.3929   -2.5405    9.9561 C   0  0  0  0  0  0  0  0  0  0  0  0
    4.9938   -2.4713   11.1855 C   0  0  0  0  0  0  0  0  0  0  0  0
    6.2339   -3.0439   11.4401 C   0  0  0  0  0  0  0  0  0  0  0  0
    6.8970   -3.7053   10.4385 C   0  0  0  0  0  0  0  0  0  0  0  0
    6.3374   -3.8032    9.1820 C   0  0  0  0  0  0  0  0  0  0  0  0
    5.1099   -3.2274    8.9608 C   0  0  0  0  0  0  0  0  0  0  0  0
    4.7588   -3.4596    7.6260 C   0  0  0  0  0  0  0  0  0  0  0  0
    3.6539   -3.1112    6.8832 C   0  0  0  0  0  0  0  0  0  0  0  0
    3.5986   -3.4932    5.5662 C   0  0  0  0  0  0  0  0  0  0  0  0
    4.6198   -4.2076    4.9956 C   0  0  0  0  0  0  0  0  0  0  0  0
    5.7133   -4.5456    5.7527 C   0  0  0  0  0  0  0  0  0  0  0  0
    5.8125   -4.1839    7.0785 C   0  0  0  0  0  0  0  0  0  0  0  0
    6.7434   -4.3747    8.0339 N   0  0  0  0  0  0  0  0  0  0  0  0
    1.0018   -0.6640    8.5412 O   0  0  0  0  0  0  0  0  0  0  0  0
  1  2  1  0
  2  3  1  0
  2  4  1  0
  4  5  1  0
  5  6  1  0
  6  7  1  0
  7  8  1  0
  8  9  1  0
  9 10  2  0
 10 11  1  0
 11 12  2  0
 12 13  1  0
 13 14  2  0
 14 15  1  0
 15 16  2  0
 16 17  1  0
 17 18  2  0
 18 19  1  0
 19 20  2  0
 20 21  1  0
  6 22  1  0
 14  9  1  0
 21 13  1  0
 20 15  1  0
M  END
$$$$
