
     RDKit          3D

 22 24  0  0  0  0  0  0  0  0999 V2000
   -3.0560   -0.4804    8.3107 C   0  0  0  0  0  0  0  0  0  0  0  0
   -2.1714    0.1976    9.2948 C   0  0  0  0  0  0  0  0  0  0  0  0
   -2.8809    0.2598   10.6371 C   0  0  0  0  0  0  0  0  0  0  0  0
   -0.9187   -0.4993    9.5233 N   0  0  0  0  0  0  0  0  0  0  0  0
    0.1689    0.3862    9.7876 C   0  0  0  0  0  0  0  0  0  0  0  0
    1.4892   -0.3382    9.6678 C   0  0  0  0  0  0  0  0  0  0  0  0
    1.6523   -1.1176    8.4085 C   0  0  0  0  0  0  0  0  0  0  0  0
    2.8062   -1.8761    8.3865 O   0  0  0  0  0  0  0  0  0  0  0  0
    3.3259   -2.6152    7.3891 C   0  0  0  0  0  0  0  0  0  0  0  0
    2.8591   -2.7357    6.1065 C   0  0  0  0  0  0  0  0  0  0  0  0
    3.4845   -3.5381    5.1601 C   0  0  0  0  0  0  0  0  0  0  0  0
    4.6094   -4.2437    5.5021 C   0  0  0  0  0  0  0  0  0  0  0  0
    5.1204   -4.1591    6.7800 C   0  0  0  0  0  0  0  0  0  0  0  0
    4.4806   -3.3572    7.6936 C   0  0  0  0  0  0  0  0  0  0  0  0
    5.1811   -3.4369    8.9027 C   0  0  0  0  0  0  0  0  0  0  0  0
    4.9832   -2.8471   10.1303 C   0  0  0  0  0  0  0  0  0  0  0  0
    5.8625   -3.1287   11.1456 C   0  0  0  0  0  0  0  0  0  0  0  0
    6.9190   -3.9794   10.9481 C   0  0  0  0  0  0  0  0  0  0  0  0
    7.0996   -4.5578    9.7167 C   0  0  0  0  0  0  0  0  0  0  0  0
    6.2425   -4.3046    8.6681 C   0  0  0  0  0  0  0  0  0  0  0  0
    6.1804   -4.7213    7.3881 N   0  0  0  0  0  0  0  0  0  0  0  0
    1.4757   -1.3067   10.7193 O   0  0  0  0  0  0  0  0  0  0  0  0
  1  2  1  0
  2  3  1  0
  2  4  1  0
  4  5  1  0
  5  6  1  0
  6  7  1  0
  7  8  1  0
  8  9  1  0
  9 10  2  0
 10 11  1  0
 11 12  2  0
 12 13  1  0
 13 14  2  0
 14 15  1  0
 15 16  2  0
 16 17  1  0
 17 18  2  0
 18 19  1  0
 19 20  2  0
 20 21  1  0
  6 22  1  0
 14  9  1  0
 21 13  1  0
 20 15  1  0
M  END
$$$$
