
     RDKit          3D

 22 24  0  0  0  0  0  0  0  0999 V2000
   -2.3128    1.3800    8.6420 C   0  0  0  0  0  0  0  0  0  0  0  0
   -1.5612    1.0679    9.8863 C   0  0  0  0  0  0  0  0  0  0  0  0
   -2.5030    1.1767   11.0737 C   0  0  0  0  0  0  0  0  0  0  0  0
   -1.0192   -0.2785    9.9127 N   0  0  0  0  0  0  0  0  0  0  0  0
    0.2789   -0.3429   10.5024 C   0  0  0  0  0  0  0  0  0  0  0  0
    0.9940   -1.6061   10.0839 C   0  0  0  0  0  0  0  0  0  0  0  0
    1.5683   -1.5625    8.7097 C   0  0  0  0  0  0  0  0  0  0  0  0
    2.7923   -2.1949    8.6139 O   0  0  0  0  0  0  0  0  0  0  0  0
    3.3472   -2.8316    7.5661 C   0  0  0  0  0  0  0  0  0  0  0  0
    2.8457   -2.9468    6.2962 C   0  0  0  0  0  0  0  0  0  0  0  0
    3.5143   -3.6372    5.2927 C   0  0  0  0  0  0  0  0  0  0  0  0
    4.7195   -4.2327    5.5627 C   0  0  0  0  0  0  0  0  0  0  0  0
    5.2685   -4.1484    6.8248 C   0  0  0  0  0  0  0  0  0  0  0  0
    4.5844   -3.4585    7.7960 C   0  0  0  0  0  0  0  0  0  0  0  0
    5.3363   -3.5142    8.9753 C   0  0  0  0  0  0  0  0  0  0  0  0
    5.1258   -3.0013   10.2349 C   0  0  0  0  0  0  0  0  0  0  0  0
    6.0689   -3.2303   11.2052 C   0  0  0  0  0  0  0  0  0  0  0  0
    7.2002   -3.9545   10.9323 C   0  0  0  0  0  0  0  0  0  0  0  0
    7.3922   -4.4577    9.6700 C   0  0  0  0  0  0  0  0  0  0  0  0
    6.4729   -4.2531    8.6643 C   0  0  0  0  0  0  0  0  0  0  0  0
    6.4047   -4.6196    7.3694 N   0  0  0  0  0  0  0  0  0  0  0  0
   -0.0231   -2.6099   10.0429 O   0  0  0  0  0  0  0  0  0  0  0  0
  1  2  1  0
  2  3  1  0
  2  4  1  0
  4  5  1  0
  5  6  1  0
  6  7  1  0
  7  8  1  0
  8  9  1  0
  9 10  2  0
 10 11  1  0
 11 12  2  0
 12 13  1  0
 13 14  2  0
 14 15  1  0
 15 16  2  0
 16 17  1  0
 17 18  2  0
 18 19  1  0
 19 20  2  0
 20 21  1  0
  6 22  1  0
 14  9  1  0
 21 13  1  0
 20 15  1  0
M  END
$$$$
