
     RDKit          3D

 22 24  0  0  0  0  0  0  0  0999 V2000
   -3.2171    0.5036   11.3992 C   0  0  0  0  0  0  0  0  0  0  0  0
   -1.7526    0.6573   11.1937 C   0  0  0  0  0  0  0  0  0  0  0  0
   -1.0644    0.6970   12.5479 C   0  0  0  0  0  0  0  0  0  0  0  0
   -1.1527   -0.4418   10.4592 N   0  0  0  0  0  0  0  0  0  0  0  0
   -0.4793   -0.0160    9.2751 C   0  0  0  0  0  0  0  0  0  0  0  0
    0.5713   -1.0219    8.8666 C   0  0  0  0  0  0  0  0  0  0  0  0
    1.7353   -1.1076    9.7928 C   0  0  0  0  0  0  0  0  0  0  0  0
    2.8334   -1.7250    9.2269 O   0  0  0  0  0  0  0  0  0  0  0  0
    3.9687   -2.1539    9.8087 C   0  0  0  0  0  0  0  0  0  0  0  0
    4.3850   -1.9316   11.0950 C   0  0  0  0  0  0  0  0  0  0  0  0
    5.5877   -2.4273   11.5832 C   0  0  0  0  0  0  0  0  0  0  0  0
    6.4020   -3.1666   10.7644 C   0  0  0  0  0  0  0  0  0  0  0  0
    6.0311   -3.4187    9.4604 C   0  0  0  0  0  0  0  0  0  0  0  0
    4.8360   -2.9160    9.0065 C   0  0  0  0  0  0  0  0  0  0  0  0
    4.6855   -3.3021    7.6696 C   0  0  0  0  0  0  0  0  0  0  0  0
    3.6915   -3.0763    6.7449 C   0  0  0  0  0  0  0  0  0  0  0  0
    3.8344   -3.5985    5.4838 C   0  0  0  0  0  0  0  0  0  0  0  0
    4.9422   -4.3312    5.1451 C   0  0  0  0  0  0  0  0  0  0  0  0
    5.9226   -4.5455    6.0812 C   0  0  0  0  0  0  0  0  0  0  0  0
    5.8223   -4.0409    7.3593 C   0  0  0  0  0  0  0  0  0  0  0  0
    6.6101   -4.0939    8.4513 N   0  0  0  0  0  0  0  0  0  0  0  0
    1.0980   -0.5256    7.6337 O   0  0  0  0  0  0  0  0  0  0  0  0
  1  2  1  0
  2  3  1  0
  2  4  1  0
  4  5  1  0
  5  6  1  0
  6  7  1  0
  7  8  1  0
  8  9  1  0
  9 10  2  0
 10 11  1  0
 11 12  2  0
 12 13  1  0
 13 14  2  0
 14 15  1  0
 15 16  2  0
 16 17  1  0
 17 18  2  0
 18 19  1  0
 19 20  2  0
 20 21  1  0
  6 22  1  0
 14  9  1  0
 21 13  1  0
 20 15  1  0
M  END
$$$$
