
     RDKit          3D

 22 24  0  0  0  0  0  0  0  0999 V2000
   -1.8307    0.1995   11.4938 C   0  0  0  0  0  0  0  0  0  0  0  0
   -0.4242    0.2413   11.0136 C   0  0  0  0  0  0  0  0  0  0  0  0
    0.5086    0.2342   12.2131 C   0  0  0  0  0  0  0  0  0  0  0  0
   -0.0565   -0.9029   10.1994 N   0  0  0  0  0  0  0  0  0  0  0  0
    0.8462   -0.5675    9.1461 C   0  0  0  0  0  0  0  0  0  0  0  0
    0.5733   -1.4076    7.9205 C   0  0  0  0  0  0  0  0  0  0  0  0
    1.7578   -1.6173    7.0412 C   0  0  0  0  0  0  0  0  0  0  0  0
    2.6570   -2.5321    7.5528 O   0  0  0  0  0  0  0  0  0  0  0  0
    3.5617   -3.2941    6.9108 C   0  0  0  0  0  0  0  0  0  0  0  0
    3.5325   -3.7051    5.6041 C   0  0  0  0  0  0  0  0  0  0  0  0
    4.5305   -4.4987    5.0520 C   0  0  0  0  0  0  0  0  0  0  0  0
    5.5903   -4.8964    5.8258 C   0  0  0  0  0  0  0  0  0  0  0  0
    5.6679   -4.5117    7.1478 C   0  0  0  0  0  0  0  0  0  0  0  0
    4.6665   -3.7266    7.6652 C   0  0  0  0  0  0  0  0  0  0  0  0
    4.9680   -3.4724    9.0082 C   0  0  0  0  0  0  0  0  0  0  0  0
    4.3181   -2.7529    9.9849 C   0  0  0  0  0  0  0  0  0  0  0  0
    4.8774   -2.6871   11.2364 C   0  0  0  0  0  0  0  0  0  0  0  0
    6.0595   -3.3227   11.5150 C   0  0  0  0  0  0  0  0  0  0  0  0
    6.6925   -4.0352   10.5276 C   0  0  0  0  0  0  0  0  0  0  0  0
    6.1686   -4.1292    9.2568 C   0  0  0  0  0  0  0  0  0  0  0  0
    6.5638   -4.7429    8.1242 N   0  0  0  0  0  0  0  0  0  0  0  0
   -0.3494   -0.6395    7.1443 O   0  0  0  0  0  0  0  0  0  0  0  0
  1  2  1  0
  2  3  1  0
  2  4  1  0
  4  5  1  0
  5  6  1  0
  6  7  1  0
  7  8  1  0
  8  9  1  0
  9 10  2  0
 10 11  1  0
 11 12  2  0
 12 13  1  0
 13 14  2  0
 14 15  1  0
 15 16  2  0
 16 17  1  0
 17 18  2  0
 18 19  1  0
 19 20  2  0
 20 21  1  0
  6 22  1  0
 14  9  1  0
 21 13  1  0
 20 15  1  0
M  END
$$$$
