
     RDKit          3D

 22 24  0  0  0  0  0  0  0  0999 V2000
   -0.4762    0.4181   12.4197 C   0  0  0  0  0  0  0  0  0  0  0  0
    0.6403    0.2378   11.4546 C   0  0  0  0  0  0  0  0  0  0  0  0
    1.9236   -0.0223   12.2255 C   0  0  0  0  0  0  0  0  0  0  0  0
    0.4584   -0.8940   10.5640 N   0  0  0  0  0  0  0  0  0  0  0  0
    1.0192   -0.6777    9.2696 C   0  0  0  0  0  0  0  0  0  0  0  0
    0.2733   -1.4731    8.2241 C   0  0  0  0  0  0  0  0  0  0  0  0
    1.1379   -2.0524    7.1578 C   0  0  0  0  0  0  0  0  0  0  0  0
    2.3483   -2.5163    7.6345 O   0  0  0  0  0  0  0  0  0  0  0  0
    3.3090   -3.2118    6.9983 C   0  0  0  0  0  0  0  0  0  0  0  0
    3.3121   -3.6337    5.6947 C   0  0  0  0  0  0  0  0  0  0  0  0
    4.3682   -4.3528    5.1487 C   0  0  0  0  0  0  0  0  0  0  0  0
    5.4548   -4.6624    5.9255 C   0  0  0  0  0  0  0  0  0  0  0  0
    5.5020   -4.2630    7.2445 C   0  0  0  0  0  0  0  0  0  0  0  0
    4.4431   -3.5529    7.7560 C   0  0  0  0  0  0  0  0  0  0  0  0
    4.7235   -3.2662    9.0970 C   0  0  0  0  0  0  0  0  0  0  0  0
    4.0199   -2.5912   10.0682 C   0  0  0  0  0  0  0  0  0  0  0  0
    4.5718   -2.4733   11.3192 C   0  0  0  0  0  0  0  0  0  0  0  0
    5.7988   -3.0146   11.6026 C   0  0  0  0  0  0  0  0  0  0  0  0
    6.4851   -3.6841   10.6207 C   0  0  0  0  0  0  0  0  0  0  0  0
    5.9706   -3.8274    9.3506 C   0  0  0  0  0  0  0  0  0  0  0  0
    6.4123   -4.4176    8.2227 N   0  0  0  0  0  0  0  0  0  0  0  0
   -0.5641   -0.5210    7.5637 O   0  0  0  0  0  0  0  0  0  0  0  0
  1  2  1  0
  2  3  1  0
  2  4  1  0
  4  5  1  0
  5  6  1  0
  6  7  1  0
  7  8  1  0
  8  9  1  0
  9 10  2  0
 10 11  1  0
 11 12  2  0
 12 13  1  0
 13 14  2  0
 14 15  1  0
 15 16  2  0
 16 17  1  0
 17 18  2  0
 18 19  1  0
 19 20  2  0
 20 21  1  0
  6 22  1  0
 14  9  1  0
 21 13  1  0
 20 15  1  0
M  END
$$$$
