
     RDKit          3D

 22 24  0  0  0  0  0  0  0  0999 V2000
   -1.7960    0.1648   11.7764 C   0  0  0  0  0  0  0  0  0  0  0  0
   -1.1776   -0.9880   11.0699 C   0  0  0  0  0  0  0  0  0  0  0  0
   -2.1317   -2.1695   11.1211 C   0  0  0  0  0  0  0  0  0  0  0  0
   -0.9140   -0.7322    9.6654 N   0  0  0  0  0  0  0  0  0  0  0  0
    0.2349   -1.4266    9.1809 C   0  0  0  0  0  0  0  0  0  0  0  0
    0.5472   -1.0172    7.7606 C   0  0  0  0  0  0  0  0  0  0  0  0
    1.1921   -2.0810    6.9406 C   0  0  0  0  0  0  0  0  0  0  0  0
    2.5226   -2.2757    7.2554 O   0  0  0  0  0  0  0  0  0  0  0  0
    3.4262   -3.0942    6.6854 C   0  0  0  0  0  0  0  0  0  0  0  0
    3.3952   -3.6244    5.4224 C   0  0  0  0  0  0  0  0  0  0  0  0
    4.3922   -4.4660    4.9447 C   0  0  0  0  0  0  0  0  0  0  0  0
    5.4529   -4.7909    5.7506 C   0  0  0  0  0  0  0  0  0  0  0  0
    5.5324   -4.2855    7.0312 C   0  0  0  0  0  0  0  0  0  0  0  0
    4.5319   -3.4556    7.4752 C   0  0  0  0  0  0  0  0  0  0  0  0
    4.8354   -3.0783    8.7884 C   0  0  0  0  0  0  0  0  0  0  0  0
    4.1870   -2.2713    9.6953 C   0  0  0  0  0  0  0  0  0  0  0  0
    4.7480   -2.0902   10.9345 C   0  0  0  0  0  0  0  0  0  0  0  0
    5.9303   -2.6978   11.2692 C   0  0  0  0  0  0  0  0  0  0  0  0
    6.5618   -3.4989   10.3511 C   0  0  0  0  0  0  0  0  0  0  0  0
    6.0361   -3.7098    9.0951 C   0  0  0  0  0  0  0  0  0  0  0  0
    6.4296   -4.4258    8.0236 N   0  0  0  0  0  0  0  0  0  0  0  0
    1.5245    0.0192    7.8815 O   0  0  0  0  0  0  0  0  0  0  0  0
  1  2  1  0
  2  3  1  0
  2  4  1  0
  4  5  1  0
  5  6  1  0
  6  7  1  0
  7  8  1  0
  8  9  1  0
  9 10  2  0
 10 11  1  0
 11 12  2  0
 12 13  1  0
 13 14  2  0
 14 15  1  0
 15 16  2  0
 16 17  1  0
 17 18  2  0
 18 19  1  0
 19 20  2  0
 20 21  1  0
  6 22  1  0
 14  9  1  0
 21 13  1  0
 20 15  1  0
M  END
$$$$
