
     RDKit          3D

 22 24  0  0  0  0  0  0  0  0999 V2000
    1.5911    1.3961   11.6506 C   0  0  0  0  0  0  0  0  0  0  0  0
    0.9023    0.0818   11.5576 C   0  0  0  0  0  0  0  0  0  0  0  0
   -0.3093    0.0921   12.4746 C   0  0  0  0  0  0  0  0  0  0  0  0
    0.4085   -0.2199   10.2263 N   0  0  0  0  0  0  0  0  0  0  0  0
    0.6540   -1.5706    9.8361 C   0  0  0  0  0  0  0  0  0  0  0  0
    0.2281   -1.7992    8.4048 C   0  0  0  0  0  0  0  0  0  0  0  0
    1.3508   -1.8317    7.4257 C   0  0  0  0  0  0  0  0  0  0  0  0
    2.4172   -2.6002    7.8497 O   0  0  0  0  0  0  0  0  0  0  0  0
    3.3532   -3.2399    7.1245 C   0  0  0  0  0  0  0  0  0  0  0  0
    3.3042   -3.5627    5.7938 C   0  0  0  0  0  0  0  0  0  0  0  0
    4.3394   -4.2321    5.1527 C   0  0  0  0  0  0  0  0  0  0  0  0
    5.4579   -4.5924    5.8593 C   0  0  0  0  0  0  0  0  0  0  0  0
    5.5578   -4.2928    7.2016 C   0  0  0  0  0  0  0  0  0  0  0  0
    4.5185   -3.6298    7.8077 C   0  0  0  0  0  0  0  0  0  0  0  0
    4.8527   -3.4428    9.1539 C   0  0  0  0  0  0  0  0  0  0  0  0
    4.1873   -2.8471   10.2010 C   0  0  0  0  0  0  0  0  0  0  0  0
    4.7896   -2.8200   11.4338 C   0  0  0  0  0  0  0  0  0  0  0  0
    6.0289   -3.3733   11.6257 C   0  0  0  0  0  0  0  0  0  0  0  0
    6.6766   -3.9629   10.5690 C   0  0  0  0  0  0  0  0  0  0  0  0
    6.1109   -4.0136    9.3137 C   0  0  0  0  0  0  0  0  0  0  0  0
    6.5079   -4.5148    8.1275 N   0  0  0  0  0  0  0  0  0  0  0  0
   -0.5467   -0.6478    8.0617 O   0  0  0  0  0  0  0  0  0  0  0  0
  1  2  1  0
  2  3  1  0
  2  4  1  0
  4  5  1  0
  5  6  1  0
  6  7  1  0
  7  8  1  0
  8  9  1  0
  9 10  2  0
 10 11  1  0
 11 12  2  0
 12 13  1  0
 13 14  2  0
 14 15  1  0
 15 16  2  0
 16 17  1  0
 17 18  2  0
 18 19  1  0
 19 20  2  0
 20 21  1  0
  6 22  1  0
 14  9  1  0
 21 13  1  0
 20 15  1  0
M  END
$$$$
