
     RDKit          3D

 22 24  0  0  0  0  0  0  0  0999 V2000
   -1.3478    1.3015   12.1268 C   0  0  0  0  0  0  0  0  0  0  0  0
   -1.0846    1.0779   10.6807 C   0  0  0  0  0  0  0  0  0  0  0  0
   -0.7220    2.4037   10.0329 C   0  0  0  0  0  0  0  0  0  0  0  0
    0.0261    0.1783   10.4270 N   0  0  0  0  0  0  0  0  0  0  0  0
   -0.3439   -0.9515    9.6374 C   0  0  0  0  0  0  0  0  0  0  0  0
    0.8294   -1.8864    9.4592 C   0  0  0  0  0  0  0  0  0  0  0  0
    1.5230   -1.7612    8.1464 C   0  0  0  0  0  0  0  0  0  0  0  0
    2.8079   -2.2675    8.1623 O   0  0  0  0  0  0  0  0  0  0  0  0
    3.5030   -2.8692    7.1795 C   0  0  0  0  0  0  0  0  0  0  0  0
    3.1625   -2.9722    5.8563 C   0  0  0  0  0  0  0  0  0  0  0  0
    3.9666   -3.6257    4.9305 C   0  0  0  0  0  0  0  0  0  0  0  0
    5.1462   -4.1955    5.3353 C   0  0  0  0  0  0  0  0  0  0  0  0
    5.5357   -4.1219    6.6561 C   0  0  0  0  0  0  0  0  0  0  0  0
    4.7201   -3.4688    7.5480 C   0  0  0  0  0  0  0  0  0  0  0  0
    5.3248   -3.5284    8.8089 C   0  0  0  0  0  0  0  0  0  0  0  0
    4.9491   -3.0458   10.0418 C   0  0  0  0  0  0  0  0  0  0  0  0
    5.7736   -3.2697   11.1157 C   0  0  0  0  0  0  0  0  0  0  0  0
    6.9493   -3.9593   10.9706 C   0  0  0  0  0  0  0  0  0  0  0  0
    7.3066   -4.4327    9.7330 C   0  0  0  0  0  0  0  0  0  0  0  0
    6.5107   -4.2319    8.6265 C   0  0  0  0  0  0  0  0  0  0  0  0
    6.6101   -4.5746    7.3271 N   0  0  0  0  0  0  0  0  0  0  0  0
    0.2611   -3.1982    9.4691 O   0  0  0  0  0  0  0  0  0  0  0  0
  1  2  1  0
  2  3  1  0
  2  4  1  0
  4  5  1  0
  5  6  1  0
  6  7  1  0
  7  8  1  0
  8  9  1  0
  9 10  2  0
 10 11  1  0
 11 12  2  0
 12 13  1  0
 13 14  2  0
 14 15  1  0
 15 16  2  0
 16 17  1  0
 17 18  2  0
 18 19  1  0
 19 20  2  0
 20 21  1  0
  6 22  1  0
 14  9  1  0
 21 13  1  0
 20 15  1  0
M  END
$$$$
