
     RDKit          3D

 22 24  0  0  0  0  0  0  0  0999 V2000
   -1.5577   -2.4015   11.2940 C   0  0  0  0  0  0  0  0  0  0  0  0
   -1.0480   -1.2701   10.4749 C   0  0  0  0  0  0  0  0  0  0  0  0
   -0.0181   -0.4987   11.2831 C   0  0  0  0  0  0  0  0  0  0  0  0
   -0.3827   -1.6920    9.2556 N   0  0  0  0  0  0  0  0  0  0  0  0
   -0.4447   -0.7105    8.2214 C   0  0  0  0  0  0  0  0  0  0  0  0
    0.8150   -0.7320    7.3879 C   0  0  0  0  0  0  0  0  0  0  0  0
    1.2930   -2.0968    7.0289 C   0  0  0  0  0  0  0  0  0  0  0  0
    2.6297   -2.2949    7.3140 O   0  0  0  0  0  0  0  0  0  0  0  0
    3.4872   -3.2018    6.8103 C   0  0  0  0  0  0  0  0  0  0  0  0
    3.4676   -3.7690    5.5633 C   0  0  0  0  0  0  0  0  0  0  0  0
    4.4121   -4.7034    5.1567 C   0  0  0  0  0  0  0  0  0  0  0  0
    5.4068   -5.0858    6.0195 C   0  0  0  0  0  0  0  0  0  0  0  0
    5.4719   -4.5466    7.2870 C   0  0  0  0  0  0  0  0  0  0  0  0
    4.5243   -3.6247    7.6602 C   0  0  0  0  0  0  0  0  0  0  0  0
    4.8004   -3.2300    8.9743 C   0  0  0  0  0  0  0  0  0  0  0  0
    4.1816   -2.3441    9.8265 C   0  0  0  0  0  0  0  0  0  0  0  0
    4.7014   -2.1680   11.0843 C   0  0  0  0  0  0  0  0  0  0  0  0
    5.8143   -2.8574   11.4905 C   0  0  0  0  0  0  0  0  0  0  0  0
    6.4173   -3.7365   10.6262 C   0  0  0  0  0  0  0  0  0  0  0  0
    5.9310   -3.9456    9.3542 C   0  0  0  0  0  0  0  0  0  0  0  0
    6.3107   -4.7259    8.3232 N   0  0  0  0  0  0  0  0  0  0  0  0
    1.8272   -0.1814    8.2342 O   0  0  0  0  0  0  0  0  0  0  0  0
  1  2  1  0
  2  3  1  0
  2  4  1  0
  4  5  1  0
  5  6  1  0
  6  7  1  0
  7  8  1  0
  8  9  1  0
  9 10  2  0
 10 11  1  0
 11 12  2  0
 12 13  1  0
 13 14  2  0
 14 15  1  0
 15 16  2  0
 16 17  1  0
 17 18  2  0
 18 19  1  0
 19 20  2  0
 20 21  1  0
  6 22  1  0
 14  9  1  0
 21 13  1  0
 20 15  1  0
M  END
$$$$
