
     RDKit          3D

 22 24  0  0  0  0  0  0  0  0999 V2000
    0.1013    1.8885   12.2601 C   0  0  0  0  0  0  0  0  0  0  0  0
   -0.9935    1.3167   11.4323 C   0  0  0  0  0  0  0  0  0  0  0  0
   -1.9785    2.4201   11.0841 C   0  0  0  0  0  0  0  0  0  0  0  0
   -0.5360    0.7604   10.1720 N   0  0  0  0  0  0  0  0  0  0  0  0
   -0.7279   -0.6512   10.0860 C   0  0  0  0  0  0  0  0  0  0  0  0
    0.5997   -1.3669   10.0010 C   0  0  0  0  0  0  0  0  0  0  0  0
    1.1682   -1.4495    8.6262 C   0  0  0  0  0  0  0  0  0  0  0  0
    2.3714   -2.1257    8.5773 O   0  0  0  0  0  0  0  0  0  0  0  0
    3.0112   -2.6592    7.5202 C   0  0  0  0  0  0  0  0  0  0  0  0
    2.5828   -2.7059    6.2196 C   0  0  0  0  0  0  0  0  0  0  0  0
    3.3363   -3.2909    5.2093 C   0  0  0  0  0  0  0  0  0  0  0  0
    4.5542   -3.8479    5.5038 C   0  0  0  0  0  0  0  0  0  0  0  0
    5.0319   -3.8291    6.7972 C   0  0  0  0  0  0  0  0  0  0  0  0
    4.2646   -3.2431    7.7744 C   0  0  0  0  0  0  0  0  0  0  0  0
    4.9559   -3.3485    8.9869 C   0  0  0  0  0  0  0  0  0  0  0  0
    4.6548   -2.9377   10.2653 C   0  0  0  0  0  0  0  0  0  0  0  0
    5.5565   -3.1920   11.2682 C   0  0  0  0  0  0  0  0  0  0  0  0
    6.7353   -3.8416   11.0089 C   0  0  0  0  0  0  0  0  0  0  0  0
    7.0176   -4.2434    9.7274 C   0  0  0  0  0  0  0  0  0  0  0  0
    6.1427   -4.0099    8.6889 C   0  0  0  0  0  0  0  0  0  0  0  0
    6.1604   -4.2852    7.3699 N   0  0  0  0  0  0  0  0  0  0  0  0
    0.3170   -2.7159   10.3807 O   0  0  0  0  0  0  0  0  0  0  0  0
  1  2  1  0
  2  3  1  0
  2  4  1  0
  4  5  1  0
  5  6  1  0
  6  7  1  0
  7  8  1  0
  8  9  1  0
  9 10  2  0
 10 11  1  0
 11 12  2  0
 12 13  1  0
 13 14  2  0
 14 15  1  0
 15 16  2  0
 16 17  1  0
 17 18  2  0
 18 19  1  0
 19 20  2  0
 20 21  1  0
  6 22  1  0
 14  9  1  0
 21 13  1  0
 20 15  1  0
M  END
$$$$
