
     RDKit          3D

 22 24  0  0  0  0  0  0  0  0999 V2000
   -0.3112    1.1336   11.7306 C   0  0  0  0  0  0  0  0  0  0  0  0
   -0.4272   -0.2870   11.3076 C   0  0  0  0  0  0  0  0  0  0  0  0
   -1.7002   -0.8752   11.8928 C   0  0  0  0  0  0  0  0  0  0  0  0
   -0.5187   -0.4569    9.8689 N   0  0  0  0  0  0  0  0  0  0  0  0
    0.3206   -1.5020    9.3788 C   0  0  0  0  0  0  0  0  0  0  0  0
    0.2463   -1.5852    7.8722 C   0  0  0  0  0  0  0  0  0  0  0  0
    1.5596   -1.4476    7.1821 C   0  0  0  0  0  0  0  0  0  0  0  0
    2.5199   -2.3132    7.6677 O   0  0  0  0  0  0  0  0  0  0  0  0
    3.3877   -3.0928    6.9965 C   0  0  0  0  0  0  0  0  0  0  0  0
    3.3103   -3.4979    5.6899 C   0  0  0  0  0  0  0  0  0  0  0  0
    4.2733   -4.3115    5.1056 C   0  0  0  0  0  0  0  0  0  0  0  0
    5.3465   -4.7358    5.8461 C   0  0  0  0  0  0  0  0  0  0  0  0
    5.4721   -4.3581    7.1663 C   0  0  0  0  0  0  0  0  0  0  0  0
    4.5045   -3.5529    7.7161 C   0  0  0  0  0  0  0  0  0  0  0  0
    4.8516   -3.3107    9.0502 C   0  0  0  0  0  0  0  0  0  0  0  0
    4.2474   -2.5807   10.0483 C   0  0  0  0  0  0  0  0  0  0  0  0
    4.8452   -2.5323   11.2827 C   0  0  0  0  0  0  0  0  0  0  0  0
    6.0204   -3.1953   11.5238 C   0  0  0  0  0  0  0  0  0  0  0  0
    6.6076   -3.9180   10.5156 C   0  0  0  0  0  0  0  0  0  0  0  0
    6.0440   -3.9952    9.2607 C   0  0  0  0  0  0  0  0  0  0  0  0
    6.3913   -4.6132    8.1148 N   0  0  0  0  0  0  0  0  0  0  0  0
   -0.5164   -0.4425    7.4765 O   0  0  0  0  0  0  0  0  0  0  0  0
  1  2  1  0
  2  3  1  0
  2  4  1  0
  4  5  1  0
  5  6  1  0
  6  7  1  0
  7  8  1  0
  8  9  1  0
  9 10  2  0
 10 11  1  0
 11 12  2  0
 12 13  1  0
 13 14  2  0
 14 15  1  0
 15 16  2  0
 16 17  1  0
 17 18  2  0
 18 19  1  0
 19 20  2  0
 20 21  1  0
  6 22  1  0
 14  9  1  0
 21 13  1  0
 20 15  1  0
M  END
$$$$
