
     RDKit          3D

 22 24  0  0  0  0  0  0  0  0999 V2000
    2.4742    1.5552   11.4914 C   0  0  0  0  0  0  0  0  0  0  0  0
    1.2731    0.7080   11.2676 C   0  0  0  0  0  0  0  0  0  0  0  0
    0.0353    1.4841   11.6853 C   0  0  0  0  0  0  0  0  0  0  0  0
    1.0770    0.3374    9.8779 N   0  0  0  0  0  0  0  0  0  0  0  0
    0.8394   -1.0591    9.7040 C   0  0  0  0  0  0  0  0  0  0  0  0
    0.2772   -1.3387    8.3300 C   0  0  0  0  0  0  0  0  0  0  0  0
    1.3070   -1.5715    7.2787 C   0  0  0  0  0  0  0  0  0  0  0  0
    2.3888   -2.3004    7.7322 O   0  0  0  0  0  0  0  0  0  0  0  0
    3.3628   -2.9119    7.0330 C   0  0  0  0  0  0  0  0  0  0  0  0
    3.3786   -3.1949    5.6926 C   0  0  0  0  0  0  0  0  0  0  0  0
    4.4478   -3.8380    5.0811 C   0  0  0  0  0  0  0  0  0  0  0  0
    5.5350   -4.2119    5.8284 C   0  0  0  0  0  0  0  0  0  0  0  0
    5.5697   -3.9520    7.1822 C   0  0  0  0  0  0  0  0  0  0  0  0
    4.4980   -3.3144    7.7582 C   0  0  0  0  0  0  0  0  0  0  0  0
    4.7675   -3.1657    9.1236 C   0  0  0  0  0  0  0  0  0  0  0  0
    4.0493   -2.6060   10.1555 C   0  0  0  0  0  0  0  0  0  0  0  0
    4.5931   -2.6120   11.4155 C   0  0  0  0  0  0  0  0  0  0  0  0
    5.8265   -3.1625   11.6488 C   0  0  0  0  0  0  0  0  0  0  0  0
    6.5275   -3.7159   10.6067 C   0  0  0  0  0  0  0  0  0  0  0  0
    6.0215   -3.7327    9.3253 C   0  0  0  0  0  0  0  0  0  0  0  0
    6.4774   -4.1954    8.1446 N   0  0  0  0  0  0  0  0  0  0  0  0
   -0.3908   -0.1325    7.9520 O   0  0  0  0  0  0  0  0  0  0  0  0
  1  2  1  0
  2  3  1  0
  2  4  1  0
  4  5  1  0
  5  6  1  0
  6  7  1  0
  7  8  1  0
  8  9  1  0
  9 10  2  0
 10 11  1  0
 11 12  2  0
 12 13  1  0
 13 14  2  0
 14 15  1  0
 15 16  2  0
 16 17  1  0
 17 18  2  0
 18 19  1  0
 19 20  2  0
 20 21  1  0
  6 22  1  0
 14  9  1  0
 21 13  1  0
 20 15  1  0
M  END
$$$$
