
     RDKit          3D

 22 24  0  0  0  0  0  0  0  0999 V2000
   -1.0654   -0.0226   12.2208 C   0  0  0  0  0  0  0  0  0  0  0  0
   -0.2969    0.6099   11.1163 C   0  0  0  0  0  0  0  0  0  0  0  0
    0.8852    1.3626   11.7038 C   0  0  0  0  0  0  0  0  0  0  0  0
    0.2521   -0.3461   10.1719 N   0  0  0  0  0  0  0  0  0  0  0  0
   -0.2676   -0.1839    8.8526 C   0  0  0  0  0  0  0  0  0  0  0  0
    0.2492   -1.2691    7.9374 C   0  0  0  0  0  0  0  0  0  0  0  0
    1.5805   -0.9828    7.3326 C   0  0  0  0  0  0  0  0  0  0  0  0
    2.5544   -1.8841    7.7154 O   0  0  0  0  0  0  0  0  0  0  0  0
    3.3771   -2.6298    6.9548 C   0  0  0  0  0  0  0  0  0  0  0  0
    3.2469   -2.9247    5.6231 C   0  0  0  0  0  0  0  0  0  0  0  0
    4.1664   -3.7139    4.9432 C   0  0  0  0  0  0  0  0  0  0  0  0
    5.2488   -4.2267    5.6107 C   0  0  0  0  0  0  0  0  0  0  0  0
    5.4267   -3.9617    6.9523 C   0  0  0  0  0  0  0  0  0  0  0  0
    4.5012   -3.1777    7.5972 C   0  0  0  0  0  0  0  0  0  0  0  0
    4.8968   -3.0549    8.9342 C   0  0  0  0  0  0  0  0  0  0  0  0
    4.3462   -2.3925   10.0076 C   0  0  0  0  0  0  0  0  0  0  0  0
    4.9832   -2.4615   11.2212 C   0  0  0  0  0  0  0  0  0  0  0  0
    6.1448   -3.1740   11.3686 C   0  0  0  0  0  0  0  0  0  0  0  0
    6.6783   -3.8279   10.2863 C   0  0  0  0  0  0  0  0  0  0  0  0
    6.0739   -3.7868    9.0488 C   0  0  0  0  0  0  0  0  0  0  0  0
    6.3668   -4.3185    7.8458 N   0  0  0  0  0  0  0  0  0  0  0  0
   -0.6707   -1.2986    6.8434 O   0  0  0  0  0  0  0  0  0  0  0  0
  1  2  1  0
  2  3  1  0
  2  4  1  0
  4  5  1  0
  5  6  1  0
  6  7  1  0
  7  8  1  0
  8  9  1  0
  9 10  2  0
 10 11  1  0
 11 12  2  0
 12 13  1  0
 13 14  2  0
 14 15  1  0
 15 16  2  0
 16 17  1  0
 17 18  2  0
 18 19  1  0
 19 20  2  0
 20 21  1  0
  6 22  1  0
 14  9  1  0
 21 13  1  0
 20 15  1  0
M  END
$$$$
