
     RDKit          3D

 22 24  0  0  0  0  0  0  0  0999 V2000
   -1.1082    1.0160   11.0994 C   0  0  0  0  0  0  0  0  0  0  0  0
    0.0817    0.1460   11.2941 C   0  0  0  0  0  0  0  0  0  0  0  0
   -0.1377   -0.7256   12.5193 C   0  0  0  0  0  0  0  0  0  0  0  0
    0.3258   -0.7575   10.1845 N   0  0  0  0  0  0  0  0  0  0  0  0
    0.7534   -0.0819    9.0023 C   0  0  0  0  0  0  0  0  0  0  0  0
    0.8218   -1.0385    7.8351 C   0  0  0  0  0  0  0  0  0  0  0  0
    2.1774   -1.1802    7.2332 C   0  0  0  0  0  0  0  0  0  0  0  0
    2.7843   -2.3818    7.5421 O   0  0  0  0  0  0  0  0  0  0  0  0
    3.7156   -3.0712    6.8576 C   0  0  0  0  0  0  0  0  0  0  0  0
    3.6684   -3.4661    5.5464 C   0  0  0  0  0  0  0  0  0  0  0  0
    4.6981   -4.1818    4.9480 C   0  0  0  0  0  0  0  0  0  0  0  0
    5.8093   -4.5158    5.6787 C   0  0  0  0  0  0  0  0  0  0  0  0
    5.9071   -4.1440    7.0030 C   0  0  0  0  0  0  0  0  0  0  0  0
    4.8733   -3.4366    7.5668 C   0  0  0  0  0  0  0  0  0  0  0  0
    5.2041   -3.1799    8.9023 C   0  0  0  0  0  0  0  0  0  0  0  0
    4.5415   -2.5198    9.9119 C   0  0  0  0  0  0  0  0  0  0  0  0
    5.1390   -2.4321   11.1442 C   0  0  0  0  0  0  0  0  0  0  0  0
    6.3707   -2.9884   11.3722 C   0  0  0  0  0  0  0  0  0  0  0  0
    7.0157   -3.6427   10.3526 C   0  0  0  0  0  0  0  0  0  0  0  0
    6.4547   -3.7557    9.0993 C   0  0  0  0  0  0  0  0  0  0  0  0
    6.8507   -4.3259    7.9443 N   0  0  0  0  0  0  0  0  0  0  0  0
    0.0120   -0.4407    6.8198 O   0  0  0  0  0  0  0  0  0  0  0  0
  1  2  1  0
  2  3  1  0
  2  4  1  0
  4  5  1  0
  5  6  1  0
  6  7  1  0
  7  8  1  0
  8  9  1  0
  9 10  2  0
 10 11  1  0
 11 12  2  0
 12 13  1  0
 13 14  2  0
 14 15  1  0
 15 16  2  0
 16 17  1  0
 17 18  2  0
 18 19  1  0
 19 20  2  0
 20 21  1  0
  6 22  1  0
 14  9  1  0
 21 13  1  0
 20 15  1  0
M  END
$$$$
