
     RDKit          3D

 37 41  0  0  0  0  0  0  0  0999 V2000
    0.6726  -17.7498   -9.1638 O   0  0  0  0  0  0  0  0  0  0  0  0
   -0.5761  -17.9084   -9.3588 C   0  0  0  0  0  0  0  0  0  0  0  0
   -1.4064  -16.8576   -9.9992 C   0  0  0  0  0  0  0  0  0  0  0  0
   -1.2910  -15.5311   -9.3283 C   0  0  0  0  0  0  0  0  0  0  0  0
   -0.2202  -14.6547   -9.9429 C   0  0  0  0  0  0  0  0  0  0  0  0
   -0.6354  -14.3136  -11.3561 C   0  0  0  0  0  0  0  0  0  0  0  0
   -1.3737  -15.4155  -12.0414 C   0  0  0  0  0  0  0  0  0  0  0  0
   -0.9614  -16.7421  -11.4470 C   0  0  0  0  0  0  0  0  0  0  0  0
   -1.4636  -13.2048  -11.3271 F   0  0  0  0  0  0  0  0  0  0  0  0
    0.4821  -13.9926  -12.0863 F   0  0  0  0  0  0  0  0  0  0  0  0
   -1.1040  -19.1545   -8.9203 N   0  0  0  0  0  0  0  0  0  0  0  0
   -0.3476  -20.0570   -8.0530 C   0  0  2  0  0  0  0  0  0  0  0  0
    0.0024  -21.2404   -8.8370 C   0  0  0  0  0  0  0  0  0  0  0  0
   -1.0863  -21.9611   -9.3458 C   0  0  0  0  0  0  0  0  0  0  0  0
   -0.9341  -23.0920  -10.1093 C   0  0  0  0  0  0  0  0  0  0  0  0
    0.3421  -23.5307  -10.3825 C   0  0  0  0  0  0  0  0  0  0  0  0
    1.4129  -22.8232   -9.8832 C   0  0  0  0  0  0  0  0  0  0  0  0
    1.2532  -21.6890   -9.1179 C   0  0  0  0  0  0  0  0  0  0  0  0
   -1.0151  -20.2921   -6.7513 C   0  0  0  0  0  0  0  0  0  0  0  0
   -1.4538  -19.0929   -5.9941 C   0  0  0  0  0  0  0  0  0  0  0  0
   -2.1329  -19.5393   -4.7924 N   0  0  2  0  0  4  0  0  0  0  0  0
   -3.1914  -18.6619   -4.3851 C   0  0  2  0  0  0  0  0  0  0  0  0
   -2.5130  -17.4689   -3.7090 C   0  0  0  0  0  0  0  0  0  0  0  0
   -1.3123  -18.1191   -3.0861 C   0  0  0  0  0  0  0  0  0  0  0  0
   -1.2713  -19.5396   -3.6358 C   0  0  1  0  0  0  0  0  0  0  0  0
   -1.9227  -20.4279   -2.5966 C   0  0  0  0  0  0  0  0  0  0  0  0
   -3.3068  -19.9524   -2.2358 C   0  0  1  0  0  0  0  0  0  0  0  0
   -4.0613  -19.3650   -3.3902 C   0  0  0  0  0  0  0  0  0  0  0  0
   -4.0287  -20.9745   -1.5164 N   0  0  0  0  0  0  0  0  0  0  0  0
   -5.2672  -21.4569   -1.7508 C   0  0  0  0  0  0  0  0  0  0  0  0
   -6.2047  -21.0656   -2.8039 C   0  0  0  0  0  0  0  0  0  0  0  0
   -5.5679  -22.4189   -0.8307 N   0  0  0  0  0  0  0  0  0  0  0  0
   -4.5492  -22.5426   -0.0361 N   0  0  0  0  0  0  0  0  0  0  0  0
   -3.5993  -21.6767   -0.4299 C   0  0  0  0  0  0  0  0  0  0  0  0
   -2.3005  -21.5736    0.2793 C   0  0  0  0  0  0  0  0  0  0  0  0
   -2.0655  -22.8546    1.0888 C   0  0  0  0  0  0  0  0  0  0  0  0
   -2.4444  -20.4408    1.2906 C   0  0  0  0  0  0  0  0  0  0  0  0
  1  2  2  0
  2  3  1  0
  3  4  1  0
  4  5  1  0
  5  6  1  0
  6  7  1  0
  7  8  1  0
  6  9  1  0
  6 10  1  0
  2 11  1  0
 11 12  1  0
 12 13  1  0
 13 14  2  0
 14 15  1  0
 15 16  2  0
 16 17  1  0
 17 18  2  0
 12 19  1  1
 19 20  1  0
 21 20  1  6
 21 22  1  0
 22 23  1  1
 23 24  1  0
 25 24  1  1
 25 26  1  0
 26 27  1  0
 27 28  1  0
 27 29  1  6
 29 30  1  0
 30 31  1  0
 30 32  2  0
 32 33  1  0
 33 34  2  0
 34 35  1  0
 35 36  1  0
 35 37  1  0
  8  3  1  0
 18 13  1  0
 25 21  1  0
 34 29  1  0
 28 22  1  0
M  CHG  1  21   1
M  END
$$$$
