
     RDKit          3D

 37 41  0  0  0  0  0  0  0  0999 V2000
    0.6489   -5.1178   15.7516 O   0  0  0  0  0  0  0  0  0  0  0  0
    0.3781   -4.4271   16.7870 C   0  0  0  0  0  0  0  0  0  0  0  0
   -0.4380   -4.9744   17.8997 C   0  0  0  0  0  0  0  0  0  0  0  0
   -1.9013   -4.9600   17.6139 C   0  0  0  0  0  0  0  0  0  0  0  0
   -2.3914   -6.2545   17.0001 C   0  0  0  0  0  0  0  0  0  0  0  0
   -2.2300   -7.3581   18.0209 C   0  0  0  0  0  0  0  0  0  0  0  0
   -1.0266   -7.1939   18.8891 C   0  0  0  0  0  0  0  0  0  0  0  0
    0.0236   -6.4004   18.1471 C   0  0  0  0  0  0  0  0  0  0  0  0
   -3.3438   -7.3780   18.8427 F   0  0  0  0  0  0  0  0  0  0  0  0
   -2.1590   -8.5644   17.3691 F   0  0  0  0  0  0  0  0  0  0  0  0
    0.9122   -3.1087   16.7921 N   0  0  0  0  0  0  0  0  0  0  0  0
    1.7701   -2.6135   15.7161 C   0  0  2  0  0  0  0  0  0  0  0  0
    3.1565   -2.7106   16.1701 C   0  0  0  0  0  0  0  0  0  0  0  0
    3.4280   -2.0833   17.3934 C   0  0  0  0  0  0  0  0  0  0  0  0
    4.6756   -2.0865   17.9665 C   0  0  0  0  0  0  0  0  0  0  0  0
    5.6970   -2.7338   17.3081 C   0  0  0  0  0  0  0  0  0  0  0  0
    5.4314   -3.3509   16.1059 C   0  0  0  0  0  0  0  0  0  0  0  0
    4.1772   -3.3440   15.5363 C   0  0  0  0  0  0  0  0  0  0  0  0
    1.3296   -1.2993   15.1926 C   0  0  0  0  0  0  0  0  0  0  0  0
    1.7617   -0.9438   13.8176 C   0  0  0  0  0  0  0  0  0  0  0  0
    1.9302    0.4957   13.7535 N   0  0  2  0  0  4  0  0  0  0  0  0
    0.8474    1.1601   13.0884 C   0  0  2  0  0  0  0  0  0  0  0  0
    1.0746    0.9413   11.5915 C   0  0  0  0  0  0  0  0  0  0  0  0
    2.5733    0.9176   11.5151 C   0  0  0  0  0  0  0  0  0  0  0  0
    3.0669    0.8863   12.9563 C   0  0  1  0  0  0  0  0  0  0  0  0
    3.4041    2.3139   13.3326 C   0  0  0  0  0  0  0  0  0  0  0  0
    2.2419    3.2465   13.1052 C   0  0  1  0  0  0  0  0  0  0  0  0
    0.9074    2.6254   13.3886 C   0  0  0  0  0  0  0  0  0  0  0  0
    2.4599    4.5088   13.7705 N   0  0  0  0  0  0  0  0  0  0  0  0
    2.4400    4.7810   15.0923 C   0  0  0  0  0  0  0  0  0  0  0  0
    2.1913    3.8587   16.2008 C   0  0  0  0  0  0  0  0  0  0  0  0
    2.6966    6.1062   15.2929 N   0  0  0  0  0  0  0  0  0  0  0  0
    2.8740    6.6580   14.1317 N   0  0  0  0  0  0  0  0  0  0  0  0
    2.7359    5.7101   13.1885 C   0  0  0  0  0  0  0  0  0  0  0  0
    2.8823    6.0231   11.7460 C   0  0  0  0  0  0  0  0  0  0  0  0
    4.2978    6.5528   11.4866 C   0  0  0  0  0  0  0  0  0  0  0  0
    1.9266    7.1745   11.4502 C   0  0  0  0  0  0  0  0  0  0  0  0
  1  2  2  0
  2  3  1  0
  3  4  1  0
  4  5  1  0
  5  6  1  0
  6  7  1  0
  7  8  1  0
  6  9  1  0
  6 10  1  0
  2 11  1  0
 11 12  1  0
 12 13  1  0
 13 14  2  0
 14 15  1  0
 15 16  2  0
 16 17  1  0
 17 18  2  0
 12 19  1  1
 19 20  1  0
 21 20  1  6
 21 22  1  0
 22 23  1  6
 23 24  1  0
 25 24  1  6
 25 26  1  0
 26 27  1  0
 27 28  1  0
 27 29  1  1
 29 30  1  0
 30 31  1  0
 30 32  2  0
 32 33  1  0
 33 34  2  0
 34 35  1  0
 35 36  1  0
 35 37  1  0
  8  3  1  0
 18 13  1  0
 25 21  1  0
 34 29  1  0
 28 22  1  0
M  CHG  1  21   1
M  END
$$$$
