
     RDKit          3D

 37 41  0  0  0  0  0  0  0  0999 V2000
    2.4171   -3.5320   13.9146 O   0  0  0  0  0  0  0  0  0  0  0  0
    1.3097   -3.7123   14.5176 C   0  0  0  0  0  0  0  0  0  0  0  0
    0.3292   -4.7299   14.0627 C   0  0  0  0  0  0  0  0  0  0  0  0
   -0.6735   -4.1876   13.1018 C   0  0  0  0  0  0  0  0  0  0  0  0
   -0.2553   -4.3628   11.6572 C   0  0  0  0  0  0  0  0  0  0  0  0
   -0.2165   -5.8422   11.3475 C   0  0  0  0  0  0  0  0  0  0  0  0
    0.2257   -6.6800   12.5014 C   0  0  0  0  0  0  0  0  0  0  0  0
    1.1100   -5.8575   13.4096 C   0  0  0  0  0  0  0  0  0  0  0  0
   -1.4852   -6.2599   10.9843 F   0  0  0  0  0  0  0  0  0  0  0  0
    0.6240   -6.0552   10.2828 F   0  0  0  0  0  0  0  0  0  0  0  0
    1.0905   -2.8732   15.6451 N   0  0  0  0  0  0  0  0  0  0  0  0
    2.0947   -1.9163   16.1089 C   0  0  2  0  0  0  0  0  0  0  0  0
    2.6178   -2.4017   17.3850 C   0  0  0  0  0  0  0  0  0  0  0  0
    3.9868   -2.7008   17.3924 C   0  0  0  0  0  0  0  0  0  0  0  0
    4.6386   -3.1593   18.5104 C   0  0  0  0  0  0  0  0  0  0  0  0
    3.9127   -3.3300   19.6678 C   0  0  0  0  0  0  0  0  0  0  0  0
    2.5672   -3.0362   19.6618 C   0  0  0  0  0  0  0  0  0  0  0  0
    1.9193   -2.5763   18.5365 C   0  0  0  0  0  0  0  0  0  0  0  0
    1.6094   -0.5168   16.0752 C   0  0  0  0  0  0  0  0  0  0  0  0
    0.8453   -0.0986   14.8732 C   0  0  0  0  0  0  0  0  0  0  0  0
    1.3600    1.1842   14.4327 N   0  0  2  0  0  4  0  0  0  0  0  0
    0.4332    2.2604   14.6295 C   0  0  2  0  0  0  0  0  0  0  0  0
   -0.5933    2.1440   13.5011 C   0  0  0  0  0  0  0  0  0  0  0  0
    0.2477    1.5971   12.3848 C   0  0  0  0  0  0  0  0  0  0  0  0
    1.5884    1.2313   13.0094 C   0  0  1  0  0  0  0  0  0  0  0  0
    2.5230    2.3937   12.7474 C   0  0  0  0  0  0  0  0  0  0  0  0
    1.9536    3.6981   13.2440 C   0  0  1  0  0  0  0  0  0  0  0  0
    1.1568    3.5650   14.5068 C   0  0  0  0  0  0  0  0  0  0  0  0
    2.9745    4.7172   13.2937 N   0  0  0  0  0  0  0  0  0  0  0  0
    3.0442    5.8765   12.6060 C   0  0  0  0  0  0  0  0  0  0  0  0
    2.0944    6.4038   11.6257 C   0  0  0  0  0  0  0  0  0  0  0  0
    4.1797    6.5494   12.9527 N   0  0  0  0  0  0  0  0  0  0  0  0
    4.8114    5.8371   13.8346 N   0  0  0  0  0  0  0  0  0  0  0  0
    4.1013    4.7182   14.0606 C   0  0  0  0  0  0  0  0  0  0  0  0
    4.5593    3.6898   15.0265 C   0  0  0  0  0  0  0  0  0  0  0  0
    4.5533    4.2870   16.4388 C   0  0  0  0  0  0  0  0  0  0  0  0
    6.0161    3.3908   14.6873 C   0  0  0  0  0  0  0  0  0  0  0  0
  1  2  2  0
  2  3  1  0
  3  4  1  0
  4  5  1  0
  5  6  1  0
  6  7  1  0
  7  8  1  0
  6  9  1  0
  6 10  1  0
  2 11  1  0
 11 12  1  0
 12 13  1  0
 13 14  2  0
 14 15  1  0
 15 16  2  0
 16 17  1  0
 17 18  2  0
 12 19  1  1
 19 20  1  0
 21 20  1  6
 21 22  1  0
 22 23  1  6
 23 24  1  0
 25 24  1  6
 25 26  1  0
 26 27  1  0
 27 28  1  0
 27 29  1  1
 29 30  1  0
 30 31  1  0
 30 32  2  0
 32 33  1  0
 33 34  2  0
 34 35  1  0
 35 36  1  0
 35 37  1  0
  8  3  1  0
 18 13  1  0
 25 21  1  0
 34 29  1  0
 28 22  1  0
M  CHG  1  21   1
M  END
$$$$
