
     RDKit          3D

 37 41  0  0  0  0  0  0  0  0999 V2000
   -4.2984  -18.3267   -4.3134 O   0  0  0  0  0  0  0  0  0  0  0  0
   -3.5667  -18.0430   -3.3100 C   0  0  0  0  0  0  0  0  0  0  0  0
   -4.1001  -17.3037   -2.1384 C   0  0  0  0  0  0  0  0  0  0  0  0
   -4.2342  -15.8390   -2.3826 C   0  0  0  0  0  0  0  0  0  0  0  0
   -5.6079  -15.4525   -2.8886 C   0  0  0  0  0  0  0  0  0  0  0  0
   -6.6155  -15.7340   -1.7971 C   0  0  0  0  0  0  0  0  0  0  0  0
   -6.2839  -16.9371   -0.9775 C   0  0  0  0  0  0  0  0  0  0  0  0
   -5.4584  -17.8958   -1.8036 C   0  0  0  0  0  0  0  0  0  0  0  0
   -6.6721  -14.6450   -0.9445 F   0  0  0  0  0  0  0  0  0  0  0  0
   -7.8555  -15.8976   -2.3633 F   0  0  0  0  0  0  0  0  0  0  0  0
   -2.2175  -18.4845   -3.4004 N   0  0  0  0  0  0  0  0  0  0  0  0
   -1.7288  -19.2628   -4.5381 C   0  0  2  0  0  0  0  0  0  0  0  0
   -1.3802  -20.5962   -4.0501 C   0  0  0  0  0  0  0  0  0  0  0  0
   -0.6024  -20.6193   -2.8846 C   0  0  0  0  0  0  0  0  0  0  0  0
   -0.1949  -21.7875   -2.2893 C   0  0  0  0  0  0  0  0  0  0  0  0
   -0.5686  -22.9810   -2.8653 C   0  0  0  0  0  0  0  0  0  0  0  0
   -1.3331  -22.9595   -4.0105 C   0  0  0  0  0  0  0  0  0  0  0  0
   -1.7388  -21.7838   -4.6027 C   0  0  0  0  0  0  0  0  0  0  0  0
   -0.6936  -18.5459   -5.3188 C   0  0  0  0  0  0  0  0  0  0  0  0
   -0.0740  -19.2817   -6.4495 C   0  0  0  0  0  0  0  0  0  0  0  0
   -0.3520  -18.5516   -7.6719 N   0  0  2  0  0  4  0  0  0  0  0  0
   -1.7373  -18.5782   -8.0410 C   0  0  2  0  0  0  0  0  0  0  0  0
   -1.9819  -19.9556   -8.6602 C   0  0  0  0  0  0  0  0  0  0  0  0
   -0.6576  -20.2328   -9.3095 C   0  0  0  0  0  0  0  0  0  0  0  0
    0.2850  -19.1379   -8.8254 C   0  0  1  0  0  0  0  0  0  0  0  0
    0.3118  -18.0769   -9.9056 C   0  0  0  0  0  0  0  0  0  0  0  0
   -1.0714  -17.5849  -10.2473 C   0  0  1  0  0  0  0  0  0  0  0  0
   -1.9957  -17.5211   -9.0688 C   0  0  0  0  0  0  0  0  0  0  0  0
   -1.0063  -16.3639  -11.0144 N   0  0  0  0  0  0  0  0  0  0  0  0
   -1.7535  -15.2470  -10.8886 C   0  0  0  0  0  0  0  0  0  0  0  0
   -2.8303  -14.9834   -9.9336 C   0  0  0  0  0  0  0  0  0  0  0  0
   -1.3639  -14.3260  -11.8172 N   0  0  0  0  0  0  0  0  0  0  0  0
   -0.3976  -14.8443  -12.5114 N   0  0  0  0  0  0  0  0  0  0  0  0
   -0.1597  -16.0824  -12.0448 C   0  0  0  0  0  0  0  0  0  0  0  0
    0.8958  -16.9437  -12.6317 C   0  0  0  0  0  0  0  0  0  0  0  0
    1.7251  -17.5652  -11.5015 C   0  0  0  0  0  0  0  0  0  0  0  0
    1.8343  -16.0201  -13.4019 C   0  0  0  0  0  0  0  0  0  0  0  0
  1  2  2  0
  2  3  1  0
  3  4  1  0
  4  5  1  0
  5  6  1  0
  6  7  1  0
  7  8  1  0
  6  9  1  0
  6 10  1  0
  2 11  1  0
 11 12  1  0
 12 13  1  0
 13 14  2  0
 14 15  1  0
 15 16  2  0
 16 17  1  0
 17 18  2  0
 12 19  1  1
 19 20  1  0
 21 20  1  1
 21 22  1  0
 22 23  1  6
 23 24  1  0
 25 24  1  6
 25 26  1  0
 26 27  1  0
 27 28  1  0
 27 29  1  1
 29 30  1  0
 30 31  1  0
 30 32  2  0
 32 33  1  0
 33 34  2  0
 34 35  1  0
 35 36  1  0
 35 37  1  0
  8  3  1  0
 18 13  1  0
 25 21  1  0
 34 29  1  0
 28 22  1  0
M  CHG  1  21   1
M  END
$$$$
