
     RDKit          3D

 37 41  0  0  0  0  0  0  0  0999 V2000
    1.9489    4.0976   13.0871 O   0  0  0  0  0  0  0  0  0  0  0  0
    0.7749    3.8469   13.5132 C   0  0  0  0  0  0  0  0  0  0  0  0
   -0.2036    4.9287   13.7886 C   0  0  0  0  0  0  0  0  0  0  0  0
    0.2345    5.8510   14.8751 C   0  0  0  0  0  0  0  0  0  0  0  0
    0.9860    7.0571   14.3526 C   0  0  0  0  0  0  0  0  0  0  0  0
    0.0335    7.8924   13.5273 C   0  0  0  0  0  0  0  0  0  0  0  0
   -0.9671    7.0816   12.7720 C   0  0  0  0  0  0  0  0  0  0  0  0
   -0.3984    5.7085   12.4996 C   0  0  0  0  0  0  0  0  0  0  0  0
   -0.6617    8.7452   14.3672 F   0  0  0  0  0  0  0  0  0  0  0  0
    0.7569    8.6574   12.6460 F   0  0  0  0  0  0  0  0  0  0  0  0
    0.4806    2.4680   13.7013 N   0  0  0  0  0  0  0  0  0  0  0  0
    1.4438    1.4163   13.3770 C   0  0  2  0  0  0  0  0  0  0  0  0
    1.0732    0.8568   12.0780 C   0  0  0  0  0  0  0  0  0  0  0  0
    2.0738    0.9118   11.0985 C   0  0  0  0  0  0  0  0  0  0  0  0
    1.8940    0.4235    9.8280 C   0  0  0  0  0  0  0  0  0  0  0  0
    0.6796   -0.1418    9.5095 C   0  0  0  0  0  0  0  0  0  0  0  0
   -0.3045   -0.1966   10.4714 C   0  0  0  0  0  0  0  0  0  0  0  0
   -0.1175    0.2951   11.7445 C   0  0  0  0  0  0  0  0  0  0  0  0
    1.6361    0.4548   14.4877 C   0  0  0  0  0  0  0  0  0  0  0  0
    2.4084   -0.7763   14.1855 C   0  0  0  0  0  0  0  0  0  0  0  0
    2.2988   -1.6706   15.3225 N   0  0  2  0  0  4  0  0  0  0  0  0
    3.4518   -2.5054   15.4955 C   0  0  2  0  0  0  0  0  0  0  0  0
    3.3281   -3.6162   14.4510 C   0  0  0  0  0  0  0  0  0  0  0  0
    1.8394   -3.7876   14.3690 C   0  0  0  0  0  0  0  0  0  0  0  0
    1.2396   -2.6372   15.1681 C   0  0  1  0  0  0  0  0  0  0  0  0
    0.9287   -3.1801   16.5472 C   0  0  0  0  0  0  0  0  0  0  0  0
    2.1384   -3.8065   17.1925 C   0  0  1  0  0  0  0  0  0  0  0  0
    3.4242   -3.1092   16.8649 C   0  0  0  0  0  0  0  0  0  0  0  0
    1.9188   -4.0093   18.6047 N   0  0  0  0  0  0  0  0  0  0  0  0
    1.9248   -3.0972   19.5995 C   0  0  0  0  0  0  0  0  0  0  0  0
    2.1564   -1.6557   19.5020 C   0  0  0  0  0  0  0  0  0  0  0  0
    1.6723   -3.7139   20.7903 N   0  0  0  0  0  0  0  0  0  0  0  0
    1.5107   -4.9803   20.5570 N   0  0  0  0  0  0  0  0  0  0  0  0
    1.6552   -5.1878   19.2366 C   0  0  0  0  0  0  0  0  0  0  0  0
    1.5267   -6.5420   18.6451 C   0  0  0  0  0  0  0  0  0  0  0  0
    0.0435   -6.9257   18.5823 C   0  0  0  0  0  0  0  0  0  0  0  0
    2.1849   -7.5097   19.6234 C   0  0  0  0  0  0  0  0  0  0  0  0
  1  2  2  0
  2  3  1  0
  3  4  1  0
  4  5  1  0
  5  6  1  0
  6  7  1  0
  7  8  1  0
  6  9  1  0
  6 10  1  0
  2 11  1  0
 11 12  1  0
 12 13  1  0
 13 14  2  0
 14 15  1  0
 15 16  2  0
 16 17  1  0
 17 18  2  0
 12 19  1  1
 19 20  1  0
 21 20  1  6
 21 22  1  0
 22 23  1  6
 23 24  1  0
 25 24  1  6
 25 26  1  0
 26 27  1  0
 27 28  1  0
 27 29  1  1
 29 30  1  0
 30 31  1  0
 30 32  2  0
 32 33  1  0
 33 34  2  0
 34 35  1  0
 35 36  1  0
 35 37  1  0
  8  3  1  0
 18 13  1  0
 25 21  1  0
 34 29  1  0
 28 22  1  0
M  CHG  1  21   1
M  END
$$$$
