
     RDKit          3D

 37 41  0  0  0  0  0  0  0  0999 V2000
    3.5950   -2.6099   13.5144 O   0  0  0  0  0  0  0  0  0  0  0  0
    2.5988   -3.3052   13.8975 C   0  0  0  0  0  0  0  0  0  0  0  0
    1.8817   -4.2185   12.9727 C   0  0  0  0  0  0  0  0  0  0  0  0
    0.7686   -3.5517   12.2383 C   0  0  0  0  0  0  0  0  0  0  0  0
    1.2002   -2.9980   10.8968 C   0  0  0  0  0  0  0  0  0  0  0  0
    1.5842   -4.1559   10.0036 C   0  0  0  0  0  0  0  0  0  0  0  0
    2.2248   -5.2868   10.7383 C   0  0  0  0  0  0  0  0  0  0  0  0
    2.8996   -4.7591   11.9830 C   0  0  0  0  0  0  0  0  0  0  0  0
    0.4462   -4.6449    9.3856 F   0  0  0  0  0  0  0  0  0  0  0  0
    2.4392   -3.7052    9.0285 F   0  0  0  0  0  0  0  0  0  0  0  0
    2.2335   -3.1390   15.2622 N   0  0  0  0  0  0  0  0  0  0  0  0
    2.9776   -2.2611   16.1647 C   0  0  2  0  0  0  0  0  0  0  0  0
    3.9598   -3.0794   16.8742 C   0  0  0  0  0  0  0  0  0  0  0  0
    5.2887   -2.6507   16.7563 C   0  0  0  0  0  0  0  0  0  0  0  0
    6.3333   -3.3005   17.3660 C   0  0  0  0  0  0  0  0  0  0  0  0
    6.0577   -4.4174   18.1224 C   0  0  0  0  0  0  0  0  0  0  0  0
    4.7520   -4.8396   18.2392 C   0  0  0  0  0  0  0  0  0  0  0  0
    3.7084   -4.1830   17.6249 C   0  0  0  0  0  0  0  0  0  0  0  0
    2.0921   -1.4115   16.9949 C   0  0  0  0  0  0  0  0  0  0  0  0
    2.7262   -0.2745   17.7081 C   0  0  0  0  0  0  0  0  0  0  0  0
    1.9179    0.9090   17.4832 N   0  0  2  0  0  4  0  0  0  0  0  0
    2.6747    2.0221   16.9887 C   0  0  2  0  0  0  0  0  0  0  0  0
    3.4105    2.6018   18.1982 C   0  0  0  0  0  0  0  0  0  0  0  0
    2.4317    2.3320   19.3034 C   0  0  0  0  0  0  0  0  0  0  0  0
    1.3554    1.4367   18.7020 C   0  0  1  0  0  0  0  0  0  0  0  0
    0.2071    2.3412   18.3064 C   0  0  0  0  0  0  0  0  0  0  0  0
    0.6547    3.4549   17.3945 C   0  0  1  0  0  0  0  0  0  0  0  0
    1.7377    3.0523   16.4396 C   0  0  0  0  0  0  0  0  0  0  0  0
   -0.4792    4.0917   16.7683 N   0  0  0  0  0  0  0  0  0  0  0  0
   -1.4002    3.5527   15.9419 C   0  0  0  0  0  0  0  0  0  0  0  0
   -1.4878    2.1722   15.4648 C   0  0  0  0  0  0  0  0  0  0  0  0
   -2.3045    4.5069   15.5762 N   0  0  0  0  0  0  0  0  0  0  0  0
   -1.9664    5.6187   16.1541 N   0  0  0  0  0  0  0  0  0  0  0  0
   -0.8604    5.3951   16.8849 C   0  0  0  0  0  0  0  0  0  0  0  0
   -0.2195    6.4756   17.6736 C   0  0  0  0  0  0  0  0  0  0  0  0
   -1.3063    7.3041   18.3692 C   0  0  0  0  0  0  0  0  0  0  0  0
    0.4594    7.4035   16.6712 C   0  0  0  0  0  0  0  0  0  0  0  0
  1  2  2  0
  2  3  1  0
  3  4  1  0
  4  5  1  0
  5  6  1  0
  6  7  1  0
  7  8  1  0
  6  9  1  0
  6 10  1  0
  2 11  1  0
 11 12  1  0
 12 13  1  0
 13 14  2  0
 14 15  1  0
 15 16  2  0
 16 17  1  0
 17 18  2  0
 12 19  1  1
 19 20  1  0
 21 20  1  1
 21 22  1  0
 22 23  1  1
 23 24  1  0
 25 24  1  6
 25 26  1  0
 26 27  1  0
 27 28  1  0
 27 29  1  6
 29 30  1  0
 30 31  1  0
 30 32  2  0
 32 33  1  0
 33 34  2  0
 34 35  1  0
 35 36  1  0
 35 37  1  0
  8  3  1  0
 18 13  1  0
 25 21  1  0
 34 29  1  0
 28 22  1  0
M  CHG  1  21   1
M  END
$$$$
