
     RDKit          3D

 37 41  0  0  0  0  0  0  0  0999 V2000
    2.8725   -2.6256   12.8840 O   0  0  0  0  0  0  0  0  0  0  0  0
    1.9045   -2.9687   13.6376 C   0  0  0  0  0  0  0  0  0  0  0  0
    0.7050   -3.6604   13.1024 C   0  0  0  0  0  0  0  0  0  0  0  0
    0.7539   -3.8576   11.6253 C   0  0  0  0  0  0  0  0  0  0  0  0
    1.3457   -5.1944   11.2317 C   0  0  0  0  0  0  0  0  0  0  0  0
    0.4196   -6.2875   11.7151 C   0  0  0  0  0  0  0  0  0  0  0  0
   -0.2537   -5.9677   13.0087 C   0  0  0  0  0  0  0  0  0  0  0  0
    0.6052   -5.0072   13.7980 C   0  0  0  0  0  0  0  0  0  0  0  0
   -0.5665   -6.4949   10.7660 F   0  0  0  0  0  0  0  0  0  0  0  0
    1.1336   -7.4524   11.8502 F   0  0  0  0  0  0  0  0  0  0  0  0
    2.0623   -2.6409   15.0128 N   0  0  0  0  0  0  0  0  0  0  0  0
    3.1423   -1.7762   15.4868 C   0  0  2  0  0  0  0  0  0  0  0  0
    4.2782   -2.6295   15.8323 C   0  0  0  0  0  0  0  0  0  0  0  0
    3.9445   -3.8523   16.4299 C   0  0  0  0  0  0  0  0  0  0  0  0
    4.8893   -4.7737   16.8087 C   0  0  0  0  0  0  0  0  0  0  0  0
    6.2163   -4.4787   16.5900 C   0  0  0  0  0  0  0  0  0  0  0  0
    6.5455   -3.2773   16.0026 C   0  0  0  0  0  0  0  0  0  0  0  0
    5.5925   -2.3572   15.6248 C   0  0  0  0  0  0  0  0  0  0  0  0
    2.6925   -0.8133   16.5191 C   0  0  0  0  0  0  0  0  0  0  0  0
    1.7777    0.2688   16.0765 C   0  0  0  0  0  0  0  0  0  0  0  0
    1.2876    0.9583   17.2551 N   0  0  2  0  0  4  0  0  0  0  0  0
   -0.0438    0.5714   17.6208 C   0  0  2  0  0  0  0  0  0  0  0  0
   -0.9758    1.3022   16.6524 C   0  0  0  0  0  0  0  0  0  0  0  0
   -0.2198    2.5760   16.4110 C   0  0  0  0  0  0  0  0  0  0  0  0
    1.1496    2.3791   17.0494 C   0  0  1  0  0  0  0  0  0  0  0  0
    1.0886    3.0225   18.4190 C   0  0  0  0  0  0  0  0  0  0  0  0
   -0.0528    2.4853   19.2440 C   0  0  1  0  0  0  0  0  0  0  0  0
   -0.3254    1.0287   19.0180 C   0  0  0  0  0  0  0  0  0  0  0  0
    0.1023    2.8494   20.6322 N   0  0  0  0  0  0  0  0  0  0  0  0
    0.6940    2.1543   21.6262 C   0  0  0  0  0  0  0  0  0  0  0  0
    1.3372    0.8420   21.5521 C   0  0  0  0  0  0  0  0  0  0  0  0
    0.6206    2.8631   22.7900 N   0  0  0  0  0  0  0  0  0  0  0  0
    0.0002    3.9754   22.5407 N   0  0  0  0  0  0  0  0  0  0  0  0
   -0.3262    3.9934   21.2367 C   0  0  0  0  0  0  0  0  0  0  0  0
   -1.0485    5.1398   20.6330 C   0  0  0  0  0  0  0  0  0  0  0  0
   -0.3934    6.4473   21.0943 C   0  0  0  0  0  0  0  0  0  0  0  0
   -2.4557    5.1276   21.2215 C   0  0  0  0  0  0  0  0  0  0  0  0
  1  2  2  0
  2  3  1  0
  3  4  1  0
  4  5  1  0
  5  6  1  0
  6  7  1  0
  7  8  1  0
  6  9  1  0
  6 10  1  0
  2 11  1  0
 11 12  1  0
 12 13  1  0
 13 14  2  0
 14 15  1  0
 15 16  2  0
 16 17  1  0
 17 18  2  0
 12 19  1  1
 19 20  1  0
 21 20  1  6
 21 22  1  0
 22 23  1  6
 23 24  1  0
 25 24  1  1
 25 26  1  0
 26 27  1  0
 27 28  1  0
 27 29  1  1
 29 30  1  0
 30 31  1  0
 30 32  2  0
 32 33  1  0
 33 34  2  0
 34 35  1  0
 35 36  1  0
 35 37  1  0
  8  3  1  0
 18 13  1  0
 25 21  1  0
 34 29  1  0
 28 22  1  0
M  CHG  1  21   1
M  END
$$$$
