
     RDKit          3D

 37 41  0  0  0  0  0  0  0  0999 V2000
    0.9578   -4.0868   13.9755 O   0  0  0  0  0  0  0  0  0  0  0  0
    0.6278   -4.1080   15.2056 C   0  0  0  0  0  0  0  0  0  0  0  0
   -0.4159   -5.0304   15.7186 C   0  0  0  0  0  0  0  0  0  0  0  0
   -1.7943   -4.6442   15.3015 C   0  0  0  0  0  0  0  0  0  0  0  0
   -2.2311   -5.3235   14.0208 C   0  0  0  0  0  0  0  0  0  0  0  0
   -2.3313   -6.8099   14.2789 C   0  0  0  0  0  0  0  0  0  0  0  0
   -1.3088   -7.3166   15.2415 C   0  0  0  0  0  0  0  0  0  0  0  0
   -0.0924   -6.4211   15.1999 C   0  0  0  0  0  0  0  0  0  0  0  0
   -3.5810   -7.0929   14.8027 F   0  0  0  0  0  0  0  0  0  0  0  0
   -2.2059   -7.4809   13.0876 F   0  0  0  0  0  0  0  0  0  0  0  0
    1.3290   -3.1905   16.0364 N   0  0  0  0  0  0  0  0  0  0  0  0
    2.3681   -2.3048   15.5123 C   0  0  2  0  0  0  0  0  0  0  0  0
    3.6194   -2.6327   16.1936 C   0  0  0  0  0  0  0  0  0  0  0  0
    3.5048   -2.8640   17.5710 C   0  0  0  0  0  0  0  0  0  0  0  0
    4.5804   -3.1909   18.3591 C   0  0  0  0  0  0  0  0  0  0  0  0
    5.8190   -3.2942   17.7665 C   0  0  0  0  0  0  0  0  0  0  0  0
    5.9329   -3.0673   16.4129 C   0  0  0  0  0  0  0  0  0  0  0  0
    4.8495   -2.7397   15.6278 C   0  0  0  0  0  0  0  0  0  0  0  0
    1.9599   -0.8805   15.5147 C   0  0  0  0  0  0  0  0  0  0  0  0
    1.2352   -0.3864   14.3172 C   0  0  0  0  0  0  0  0  0  0  0  0
    1.6834    0.9656   14.0420 N   0  0  2  0  0  4  0  0  0  0  0  0
    0.8548    1.9675   14.6468 C   0  0  2  0  0  0  0  0  0  0  0  0
   -0.3933    2.0687   13.7678 C   0  0  0  0  0  0  0  0  0  0  0  0
    0.1706    1.7704   12.4094 C   0  0  0  0  0  0  0  0  0  0  0  0
    1.6020    1.3030   12.6421 C   0  0  1  0  0  0  0  0  0  0  0  0
    2.4946    2.5065   12.4224 C   0  0  0  0  0  0  0  0  0  0  0  0
    2.0866    3.6757   13.2819 C   0  0  1  0  0  0  0  0  0  0  0  0
    1.5759    3.2792   14.6343 C   0  0  0  0  0  0  0  0  0  0  0  0
    3.1259    4.6769   13.3124 N   0  0  0  0  0  0  0  0  0  0  0  0
    4.3173    4.6378   13.9453 C   0  0  0  0  0  0  0  0  0  0  0  0
    4.8675    3.5612   14.7695 C   0  0  0  0  0  0  0  0  0  0  0  0
    4.9996    5.7966   13.7132 N   0  0  0  0  0  0  0  0  0  0  0  0
    4.2618    6.5485   12.9551 N   0  0  0  0  0  0  0  0  0  0  0  0
    3.1173    5.8925   12.6961 C   0  0  0  0  0  0  0  0  0  0  0  0
    2.0559    6.4883   11.8483 C   0  0  0  0  0  0  0  0  0  0  0  0
    2.6635    6.9167   10.5072 C   0  0  0  0  0  0  0  0  0  0  0  0
    1.6039    7.7658   12.5485 C   0  0  0  0  0  0  0  0  0  0  0  0
  1  2  2  0
  2  3  1  0
  3  4  1  0
  4  5  1  0
  5  6  1  0
  6  7  1  0
  7  8  1  0
  6  9  1  0
  6 10  1  0
  2 11  1  0
 11 12  1  0
 12 13  1  0
 13 14  2  0
 14 15  1  0
 15 16  2  0
 16 17  1  0
 17 18  2  0
 12 19  1  1
 19 20  1  0
 21 20  1  6
 21 22  1  0
 22 23  1  6
 23 24  1  0
 25 24  1  1
 25 26  1  0
 26 27  1  0
 27 28  1  0
 27 29  1  1
 29 30  1  0
 30 31  1  0
 30 32  2  0
 32 33  1  0
 33 34  2  0
 34 35  1  0
 35 36  1  0
 35 37  1  0
  8  3  1  0
 18 13  1  0
 25 21  1  0
 34 29  1  0
 28 22  1  0
M  CHG  1  21   1
M  END
$$$$
