
     RDKit          3D

 37 41  0  0  0  0  0  0  0  0999 V2000
    1.1378   -5.1276   17.2449 O   0  0  0  0  0  0  0  0  0  0  0  0
    1.4972   -4.2621   18.1076 C   0  0  0  0  0  0  0  0  0  0  0  0
    1.2478   -4.4548   19.5582 C   0  0  0  0  0  0  0  0  0  0  0  0
   -0.1874   -4.2985   19.9309 C   0  0  0  0  0  0  0  0  0  0  0  0
   -0.9421   -5.6111   19.9200 C   0  0  0  0  0  0  0  0  0  0  0  0
   -0.3771   -6.4957   21.0082 C   0  0  0  0  0  0  0  0  0  0  0  0
    1.0922   -6.3249   21.2105 C   0  0  0  0  0  0  0  0  0  0  0  0
    1.7247   -5.8502   19.9229 C   0  0  0  0  0  0  0  0  0  0  0  0
   -1.0055   -6.1955   22.2045 F   0  0  0  0  0  0  0  0  0  0  0  0
   -0.6443   -7.8074   20.7032 F   0  0  0  0  0  0  0  0  0  0  0  0
    2.1470   -3.1129   17.5780 N   0  0  0  0  0  0  0  0  0  0  0  0
    2.2569   -2.8761   16.1389 C   0  0  2  0  0  0  0  0  0  0  0  0
    3.6028   -3.2682   15.7236 C   0  0  0  0  0  0  0  0  0  0  0  0
    4.6465   -2.6402   16.4163 C   0  0  0  0  0  0  0  0  0  0  0  0
    5.9694   -2.9002   16.1566 C   0  0  0  0  0  0  0  0  0  0  0  0
    6.2765   -3.8156   15.1751 C   0  0  0  0  0  0  0  0  0  0  0  0
    5.2516   -4.4336   14.4938 C   0  0  0  0  0  0  0  0  0  0  0  0
    3.9262   -4.1683   14.7593 C   0  0  0  0  0  0  0  0  0  0  0  0
    1.8055   -1.5205   15.7465 C   0  0  0  0  0  0  0  0  0  0  0  0
    1.7135   -1.2370   14.2923 C   0  0  0  0  0  0  0  0  0  0  0  0
    1.9615    0.1780   14.0899 N   0  0  2  0  0  4  0  0  0  0  0  0
    0.8543    0.8633   13.4895 C   0  0  2  0  0  0  0  0  0  0  0  0
    0.9002    0.5146   12.0006 C   0  0  0  0  0  0  0  0  0  0  0  0
    2.3769    0.3804   11.7686 C   0  0  0  0  0  0  0  0  0  0  0  0
    3.0245    0.4257   13.1470 C   0  0  1  0  0  0  0  0  0  0  0  0
    3.4879    1.8510   13.3642 C   0  0  0  0  0  0  0  0  0  0  0  0
    2.3669    2.8423   13.1833 C   0  0  1  0  0  0  0  0  0  0  0  0
    1.0366    2.3396   13.6573 C   0  0  0  0  0  0  0  0  0  0  0  0
    2.7340    4.1337   13.7134 N   0  0  0  0  0  0  0  0  0  0  0  0
    3.0149    4.4739   14.9889 C   0  0  0  0  0  0  0  0  0  0  0  0
    3.0206    3.6140   16.1728 C   0  0  0  0  0  0  0  0  0  0  0  0
    3.3147    5.8035   15.0549 N   0  0  0  0  0  0  0  0  0  0  0  0
    3.2264    6.2920   13.8558 N   0  0  0  0  0  0  0  0  0  0  0  0
    2.8751    5.2989   13.0205 C   0  0  0  0  0  0  0  0  0  0  0  0
    2.6922    5.5349   11.5675 C   0  0  0  0  0  0  0  0  0  0  0  0
    4.0606    5.5052   10.8761 C   0  0  0  0  0  0  0  0  0  0  0  0
    2.1615    6.9573   11.4199 C   0  0  0  0  0  0  0  0  0  0  0  0
  1  2  2  0
  2  3  1  0
  3  4  1  0
  4  5  1  0
  5  6  1  0
  6  7  1  0
  7  8  1  0
  6  9  1  0
  6 10  1  0
  2 11  1  0
 11 12  1  0
 12 13  1  0
 13 14  2  0
 14 15  1  0
 15 16  2  0
 16 17  1  0
 17 18  2  0
 12 19  1  1
 19 20  1  0
 21 20  1  6
 21 22  1  0
 22 23  1  6
 23 24  1  0
 25 24  1  6
 25 26  1  0
 26 27  1  0
 27 28  1  0
 27 29  1  1
 29 30  1  0
 30 31  1  0
 30 32  2  0
 32 33  1  0
 33 34  2  0
 34 35  1  0
 35 36  1  0
 35 37  1  0
  8  3  1  0
 18 13  1  0
 25 21  1  0
 34 29  1  0
 28 22  1  0
M  CHG  1  21   1
M  END
$$$$
