
     RDKit          3D

 37 41  0  0  0  0  0  0  0  0999 V2000
    0.6718   -2.9335   17.8170 O   0  0  0  0  0  0  0  0  0  0  0  0
    1.7703   -3.1976   17.2287 C   0  0  0  0  0  0  0  0  0  0  0  0
    2.5889   -4.3800   17.5968 C   0  0  0  0  0  0  0  0  0  0  0  0
    3.5118   -4.1200   18.7386 C   0  0  0  0  0  0  0  0  0  0  0  0
    2.9048   -4.4834   20.0773 C   0  0  0  0  0  0  0  0  0  0  0  0
    2.6914   -5.9798   20.1143 C   0  0  0  0  0  0  0  0  0  0  0  0
    2.3188   -6.5604   18.7903 C   0  0  0  0  0  0  0  0  0  0  0  0
    1.6328   -5.5051   17.9542 C   0  0  0  0  0  0  0  0  0  0  0  0
    3.8618   -6.5916   20.5291 F   0  0  0  0  0  0  0  0  0  0  0  0
    1.7104   -6.2699   21.0301 F   0  0  0  0  0  0  0  0  0  0  0  0
    2.1446   -2.2826   16.2059 N   0  0  0  0  0  0  0  0  0  0  0  0
    1.1567   -1.6292   15.3479 C   0  0  2  0  0  0  0  0  0  0  0  0
    0.8576   -2.5360   14.2407 C   0  0  0  0  0  0  0  0  0  0  0  0
    1.9353   -2.8107   13.3881 C   0  0  0  0  0  0  0  0  0  0  0  0
    1.8281   -3.6480   12.3053 C   0  0  0  0  0  0  0  0  0  0  0  0
    0.6104   -4.2385   12.0522 C   0  0  0  0  0  0  0  0  0  0  0  0
   -0.4494   -3.9695   12.8895 C   0  0  0  0  0  0  0  0  0  0  0  0
   -0.3351   -3.1284   13.9744 C   0  0  0  0  0  0  0  0  0  0  0  0
    1.5376   -0.2426   14.9909 C   0  0  0  0  0  0  0  0  0  0  0  0
    0.5622    0.5374   14.1885 C   0  0  0  0  0  0  0  0  0  0  0  0
    1.0872    1.8787   14.0158 N   0  0  2  0  0  4  0  0  0  0  0  0
    0.3077    2.8790   14.6851 C   0  0  2  0  0  0  0  0  0  0  0  0
   -0.9223    3.1125   13.8059 C   0  0  0  0  0  0  0  0  0  0  0  0
   -0.3594    2.8820   12.4339 C   0  0  0  0  0  0  0  0  0  0  0  0
    1.0413    2.3202   12.6435 C   0  0  1  0  0  0  0  0  0  0  0  0
    2.0012    3.4848   12.5189 C   0  0  0  0  0  0  0  0  0  0  0  0
    1.6476    4.6099   13.4577 C   0  0  1  0  0  0  0  0  0  0  0  0
    1.0998    4.1460   14.7737 C   0  0  0  0  0  0  0  0  0  0  0  0
    2.7399    5.5469   13.5692 N   0  0  0  0  0  0  0  0  0  0  0  0
    2.8753    6.5887   14.4165 C   0  0  0  0  0  0  0  0  0  0  0  0
    1.9425    7.0399   15.4497 C   0  0  0  0  0  0  0  0  0  0  0  0
    4.0639    7.2180   14.1855 N   0  0  0  0  0  0  0  0  0  0  0  0
    4.6646    6.5929   13.2196 N   0  0  0  0  0  0  0  0  0  0  0  0
    3.8823    5.5729   12.8262 C   0  0  0  0  0  0  0  0  0  0  0  0
    4.2904    4.6590   11.7314 C   0  0  0  0  0  0  0  0  0  0  0  0
    5.8185    4.5317   11.7248 C   0  0  0  0  0  0  0  0  0  0  0  0
    3.9059    5.3449   10.4243 C   0  0  0  0  0  0  0  0  0  0  0  0
  1  2  2  0
  2  3  1  0
  3  4  1  0
  4  5  1  0
  5  6  1  0
  6  7  1  0
  7  8  1  0
  6  9  1  0
  6 10  1  0
  2 11  1  0
 11 12  1  0
 12 13  1  0
 13 14  2  0
 14 15  1  0
 15 16  2  0
 16 17  1  0
 17 18  2  0
 12 19  1  6
 19 20  1  0
 21 20  1  6
 21 22  1  0
 22 23  1  6
 23 24  1  0
 25 24  1  1
 25 26  1  0
 26 27  1  0
 27 28  1  0
 27 29  1  1
 29 30  1  0
 30 31  1  0
 30 32  2  0
 32 33  1  0
 33 34  2  0
 34 35  1  0
 35 36  1  0
 35 37  1  0
  8  3  1  0
 18 13  1  0
 25 21  1  0
 34 29  1  0
 28 22  1  0
M  CHG  1  21   1
M  END
$$$$
