
     RDKit          3D

 37 41  0  0  0  0  0  0  0  0999 V2000
    2.2642    1.2118   11.2620 O   0  0  0  0  0  0  0  0  0  0  0  0
    1.0711    0.8189   11.0504 C   0  0  0  0  0  0  0  0  0  0  0  0
    0.1739    1.5227   10.0999 C   0  0  0  0  0  0  0  0  0  0  0  0
   -0.1948    2.8952   10.5507 C   0  0  0  0  0  0  0  0  0  0  0  0
    0.7373    3.9595   10.0112 C   0  0  0  0  0  0  0  0  0  0  0  0
    0.5800    4.0146    8.5084 C   0  0  0  0  0  0  0  0  0  0  0  0
    0.3094    2.6833    7.8895 C   0  0  0  0  0  0  0  0  0  0  0  0
    0.8909    1.5958    8.7627 C   0  0  0  0  0  0  0  0  0  0  0  0
   -0.4801    4.8483    8.1967 F   0  0  0  0  0  0  0  0  0  0  0  0
    1.7189    4.5486    7.9581 F   0  0  0  0  0  0  0  0  0  0  0  0
    0.6728   -0.3312   11.7867 N   0  0  0  0  0  0  0  0  0  0  0  0
    1.5644   -0.9910   12.7400 C   0  0  2  0  0  0  0  0  0  0  0  0
    1.8567   -2.3281   12.2259 C   0  0  0  0  0  0  0  0  0  0  0  0
    0.7331   -3.1034   11.9098 C   0  0  0  0  0  0  0  0  0  0  0  0
    0.8300   -4.3780   11.4086 C   0  0  0  0  0  0  0  0  0  0  0  0
    2.0843   -4.9101   11.2107 C   0  0  0  0  0  0  0  0  0  0  0  0
    3.1894   -4.1490   11.5208 C   0  0  0  0  0  0  0  0  0  0  0  0
    3.0851   -2.8707   12.0233 C   0  0  0  0  0  0  0  0  0  0  0  0
    1.0740   -0.9048   14.1355 C   0  0  0  0  0  0  0  0  0  0  0  0
    1.8092    0.0025   15.0519 C   0  0  0  0  0  0  0  0  0  0  0  0
    1.8433   -0.6111   16.3661 N   0  0  2  0  0  4  0  0  0  0  0  0
    1.5774    0.3158   17.4273 C   0  0  2  0  0  0  0  0  0  0  0  0
    2.8698    1.1096   17.6270 C   0  0  0  0  0  0  0  0  0  0  0  0
    3.9095    0.0813   17.2896 C   0  0  0  0  0  0  0  0  0  0  0  0
    3.1522   -1.1082   16.7125 C   0  0  1  0  0  0  0  0  0  0  0  0
    2.9667   -2.0974   17.8440 C   0  0  0  0  0  0  0  0  0  0  0  0
    2.2968   -1.4684   19.0389 C   0  0  1  0  0  0  0  0  0  0  0  0
    1.2646   -0.4426   18.6795 C   0  0  0  0  0  0  0  0  0  0  0  0
    1.8305   -2.4801   19.9568 N   0  0  0  0  0  0  0  0  0  0  0  0
    1.2801   -2.3220   21.1789 C   0  0  0  0  0  0  0  0  0  0  0  0
    1.0109   -1.0740   21.8938 C   0  0  0  0  0  0  0  0  0  0  0  0
    0.9810   -3.5430   21.7100 N   0  0  0  0  0  0  0  0  0  0  0  0
    1.3319   -4.4488   20.8493 N   0  0  0  0  0  0  0  0  0  0  0  0
    1.8511   -3.8307   19.7743 C   0  0  0  0  0  0  0  0  0  0  0  0
    2.3482   -4.5949   18.6042 C   0  0  0  0  0  0  0  0  0  0  0  0
    1.6613   -5.9654   18.5688 C   0  0  0  0  0  0  0  0  0  0  0  0
    3.8301   -4.8578   18.8524 C   0  0  0  0  0  0  0  0  0  0  0  0
  1  2  2  0
  2  3  1  0
  3  4  1  0
  4  5  1  0
  5  6  1  0
  6  7  1  0
  7  8  1  0
  6  9  1  0
  6 10  1  0
  2 11  1  0
 11 12  1  0
 12 13  1  0
 13 14  2  0
 14 15  1  0
 15 16  2  0
 16 17  1  0
 17 18  2  0
 12 19  1  1
 19 20  1  0
 21 20  1  6
 21 22  1  0
 22 23  1  1
 23 24  1  0
 25 24  1  1
 25 26  1  0
 26 27  1  0
 27 28  1  0
 27 29  1  6
 29 30  1  0
 30 31  1  0
 30 32  2  0
 32 33  1  0
 33 34  2  0
 34 35  1  0
 35 36  1  0
 35 37  1  0
  8  3  1  0
 18 13  1  0
 25 21  1  0
 34 29  1  0
 28 22  1  0
M  CHG  1  21   1
M  END
$$$$
