
     RDKit          3D

 37 41  0  0  0  0  0  0  0  0999 V2000
    2.5927   -5.1811   16.8583 O   0  0  0  0  0  0  0  0  0  0  0  0
    1.8550   -4.2552   17.3284 C   0  0  0  0  0  0  0  0  0  0  0  0
    0.8548   -4.5182   18.3934 C   0  0  0  0  0  0  0  0  0  0  0  0
   -0.3493   -3.6447   18.2937 C   0  0  0  0  0  0  0  0  0  0  0  0
   -1.4659   -4.2754   17.4888 C   0  0  0  0  0  0  0  0  0  0  0  0
   -1.9608   -5.4950   18.2329 C   0  0  0  0  0  0  0  0  0  0  0  0
   -0.8828   -6.2224   18.9662 C   0  0  0  0  0  0  0  0  0  0  0  0
    0.4429   -5.9763   18.2841 C   0  0  0  0  0  0  0  0  0  0  0  0
   -2.9110   -5.1024   19.1599 F   0  0  0  0  0  0  0  0  0  0  0  0
   -2.5613   -6.3502   17.3423 F   0  0  0  0  0  0  0  0  0  0  0  0
    2.0628   -2.9679   16.7600 N   0  0  0  0  0  0  0  0  0  0  0  0
    3.1666   -2.6932   15.8405 C   0  0  2  0  0  0  0  0  0  0  0  0
    4.4078   -2.7195   16.6127 C   0  0  0  0  0  0  0  0  0  0  0  0
    5.3866   -3.6023   16.1370 C   0  0  0  0  0  0  0  0  0  0  0  0
    6.6120   -3.7439   16.7397 C   0  0  0  0  0  0  0  0  0  0  0  0
    6.8843   -2.9853   17.8561 C   0  0  0  0  0  0  0  0  0  0  0  0
    5.9232   -2.1173   18.3244 C   0  0  0  0  0  0  0  0  0  0  0  0
    4.6956   -1.9799   17.7149 C   0  0  0  0  0  0  0  0  0  0  0  0
    2.9274   -1.4955   15.0018 C   0  0  0  0  0  0  0  0  0  0  0  0
    1.8536   -1.5924   13.9814 C   0  0  0  0  0  0  0  0  0  0  0  0
    1.5119   -0.2488   13.5542 N   0  0  2  0  0  4  0  0  0  0  0  0
    0.4296    0.3217   14.3021 C   0  0  2  0  0  0  0  0  0  0  0  0
   -0.8467   -0.3138   13.7474 C   0  0  0  0  0  0  0  0  0  0  0  0
   -0.4813   -0.5132   12.3055 C   0  0  0  0  0  0  0  0  0  0  0  0
    1.0079   -0.2074   12.2035 C   0  0  1  0  0  0  0  0  0  0  0  0
    1.1269    1.2257   11.7285 C   0  0  0  0  0  0  0  0  0  0  0  0
    0.3672    2.1787   12.6153 C   0  0  1  0  0  0  0  0  0  0  0  0
    0.3895    1.7992   14.0653 C   0  0  0  0  0  0  0  0  0  0  0  0
    0.7586    3.5435   12.3552 N   0  0  0  0  0  0  0  0  0  0  0  0
    0.4335    4.6601   13.0402 C   0  0  0  0  0  0  0  0  0  0  0  0
   -0.4056    4.7758   14.2334 C   0  0  0  0  0  0  0  0  0  0  0  0
    1.0170    5.7455   12.4539 N   0  0  0  0  0  0  0  0  0  0  0  0
    1.6925    5.3288   11.4271 N   0  0  0  0  0  0  0  0  0  0  0  0
    1.5530    3.9943   11.3435 C   0  0  0  0  0  0  0  0  0  0  0  0
    2.2097    3.2109   10.2687 C   0  0  0  0  0  0  0  0  0  0  0  0
    3.7235    3.4491   10.3248 C   0  0  0  0  0  0  0  0  0  0  0  0
    1.7266    3.7956    8.9453 C   0  0  0  0  0  0  0  0  0  0  0  0
  1  2  2  0
  2  3  1  0
  3  4  1  0
  4  5  1  0
  5  6  1  0
  6  7  1  0
  7  8  1  0
  6  9  1  0
  6 10  1  0
  2 11  1  0
 11 12  1  0
 12 13  1  0
 13 14  2  0
 14 15  1  0
 15 16  2  0
 16 17  1  0
 17 18  2  0
 12 19  1  1
 19 20  1  0
 21 20  1  1
 21 22  1  0
 22 23  1  6
 23 24  1  0
 25 24  1  1
 25 26  1  0
 26 27  1  0
 27 28  1  0
 27 29  1  1
 29 30  1  0
 30 31  1  0
 30 32  2  0
 32 33  1  0
 33 34  2  0
 34 35  1  0
 35 36  1  0
 35 37  1  0
  8  3  1  0
 18 13  1  0
 25 21  1  0
 34 29  1  0
 28 22  1  0
M  CHG  1  21   1
M  END
$$$$
