
     RDKit          3D

 37 41  0  0  0  0  0  0  0  0999 V2000
    1.1166   -3.1927   17.6519 O   0  0  0  0  0  0  0  0  0  0  0  0
    2.3598   -3.4558   17.5650 C   0  0  0  0  0  0  0  0  0  0  0  0
    3.0662   -4.2436   18.6062 C   0  0  0  0  0  0  0  0  0  0  0  0
    2.3083   -4.3324   19.8871 C   0  0  0  0  0  0  0  0  0  0  0  0
    1.4278   -5.5617   19.9631 C   0  0  0  0  0  0  0  0  0  0  0  0
    2.3161   -6.7851   19.9795 C   0  0  0  0  0  0  0  0  0  0  0  0
    3.5509   -6.6345   19.1539 C   0  0  0  0  0  0  0  0  0  0  0  0
    3.2969   -5.6372   18.0475 C   0  0  0  0  0  0  0  0  0  0  0  0
    2.7079   -7.0399   21.2824 F   0  0  0  0  0  0  0  0  0  0  0  0
    1.5983   -7.8660   19.5305 F   0  0  0  0  0  0  0  0  0  0  0  0
    3.0080   -2.9422   16.4076 N   0  0  0  0  0  0  0  0  0  0  0  0
    2.2640   -2.3295   15.3076 C   0  0  2  0  0  0  0  0  0  0  0  0
    1.8682   -3.3953   14.3883 C   0  0  0  0  0  0  0  0  0  0  0  0
    2.9188   -4.1887   13.9085 C   0  0  0  0  0  0  0  0  0  0  0  0
    2.7203   -5.2367   13.0440 C   0  0  0  0  0  0  0  0  0  0  0  0
    1.4350   -5.5144   12.6358 C   0  0  0  0  0  0  0  0  0  0  0  0
    0.4016   -4.7354   13.1068 C   0  0  0  0  0  0  0  0  0  0  0  0
    0.6076   -3.6853   13.9742 C   0  0  0  0  0  0  0  0  0  0  0  0
    2.9688   -1.1671   14.7182 C   0  0  0  0  0  0  0  0  0  0  0  0
    2.5022   -0.7012   13.3882 C   0  0  0  0  0  0  0  0  0  0  0  0
    2.4721    0.7491   13.4010 N   0  0  2  0  0  4  0  0  0  0  0  0
    1.1634    1.2829   13.6430 C   0  0  2  0  0  0  0  0  0  0  0  0
    0.4050    1.1543   12.3206 C   0  0  0  0  0  0  0  0  0  0  0  0
    1.5091    1.3400   11.3213 C   0  0  0  0  0  0  0  0  0  0  0  0
    2.8063    1.3224   12.1205 C   0  0  1  0  0  0  0  0  0  0  0  0
    3.1865    2.7676   12.3661 C   0  0  0  0  0  0  0  0  0  0  0  0
    2.0728    3.5393   13.0265 C   0  0  1  0  0  0  0  0  0  0  0  0
    1.2793    2.7301   14.0077 C   0  0  0  0  0  0  0  0  0  0  0  0
    2.5587    4.7935   13.5504 N   0  0  0  0  0  0  0  0  0  0  0  0
    3.7272    5.0516   14.1745 C   0  0  0  0  0  0  0  0  0  0  0  0
    4.8121    4.1192   14.4824 C   0  0  0  0  0  0  0  0  0  0  0  0
    3.7878    6.3733   14.5090 N   0  0  0  0  0  0  0  0  0  0  0  0
    2.6893    6.9365   14.1084 N   0  0  0  0  0  0  0  0  0  0  0  0
    1.9240    5.9994   13.5223 C   0  0  0  0  0  0  0  0  0  0  0  0
    0.5937    6.3275   12.9540 C   0  0  0  0  0  0  0  0  0  0  0  0
    0.5432    5.8679   11.4919 C   0  0  0  0  0  0  0  0  0  0  0  0
    0.4908    7.8493   12.9349 C   0  0  0  0  0  0  0  0  0  0  0  0
  1  2  2  0
  2  3  1  0
  3  4  1  0
  4  5  1  0
  5  6  1  0
  6  7  1  0
  7  8  1  0
  6  9  1  0
  6 10  1  0
  2 11  1  0
 11 12  1  0
 12 13  1  0
 13 14  2  0
 14 15  1  0
 15 16  2  0
 16 17  1  0
 17 18  2  0
 12 19  1  6
 19 20  1  0
 21 20  1  6
 21 22  1  0
 22 23  1  6
 23 24  1  0
 25 24  1  6
 25 26  1  0
 26 27  1  0
 27 28  1  0
 27 29  1  1
 29 30  1  0
 30 31  1  0
 30 32  2  0
 32 33  1  0
 33 34  2  0
 34 35  1  0
 35 36  1  0
 35 37  1  0
  8  3  1  0
 18 13  1  0
 25 21  1  0
 34 29  1  0
 28 22  1  0
M  CHG  1  21   1
M  END
$$$$
