
     RDKit          3D

 37 41  0  0  0  0  0  0  0  0999 V2000
    4.5747   -2.8328   17.7752 O   0  0  0  0  0  0  0  0  0  0  0  0
    4.0623   -3.6551   16.9482 C   0  0  0  0  0  0  0  0  0  0  0  0
    4.7814   -4.8806   16.5181 C   0  0  0  0  0  0  0  0  0  0  0  0
    4.7335   -5.0999   15.0441 C   0  0  0  0  0  0  0  0  0  0  0  0
    5.9207   -4.4974   14.3230 C   0  0  0  0  0  0  0  0  0  0  0  0
    7.1679   -5.2315   14.7606 C   0  0  0  0  0  0  0  0  0  0  0  0
    7.1315   -5.6675   16.1880 C   0  0  0  0  0  0  0  0  0  0  0  0
    6.2250   -4.7467   16.9715 C   0  0  0  0  0  0  0  0  0  0  0  0
    7.3230   -6.3625   13.9777 F   0  0  0  0  0  0  0  0  0  0  0  0
    8.2581   -4.4213   14.5606 F   0  0  0  0  0  0  0  0  0  0  0  0
    2.7652   -3.3107   16.4766 N   0  0  0  0  0  0  0  0  0  0  0  0
    1.8794   -2.4166   17.2215 C   0  0  2  0  0  0  0  0  0  0  0  0
    1.0951   -3.2339   18.1461 C   0  0  0  0  0  0  0  0  0  0  0  0
    0.5123   -4.3771   17.5830 C   0  0  0  0  0  0  0  0  0  0  0  0
   -0.2483   -5.2566   18.3130 C   0  0  0  0  0  0  0  0  0  0  0  0
   -0.4427   -4.9996   19.6516 C   0  0  0  0  0  0  0  0  0  0  0  0
    0.1298   -3.8765   20.2062 C   0  0  0  0  0  0  0  0  0  0  0  0
    0.8920   -2.9981   19.4681 C   0  0  0  0  0  0  0  0  0  0  0  0
    1.1248   -1.4949   16.3405 C   0  0  0  0  0  0  0  0  0  0  0  0
    0.8742   -0.1258   16.8563 C   0  0  0  0  0  0  0  0  0  0  0  0
    0.8277    0.7828   15.7263 N   0  0  2  0  0  4  0  0  0  0  0  0
    1.5534    1.9989   15.9514 C   0  0  2  0  0  0  0  0  0  0  0  0
    0.6603    2.8635   16.8431 C   0  0  0  0  0  0  0  0  0  0  0  0
   -0.7087    2.4610   16.3783 C   0  0  0  0  0  0  0  0  0  0  0  0
   -0.5045    1.2651   15.4564 C   0  0  1  0  0  0  0  0  0  0  0  0
   -0.5046    1.8014   14.0402 C   0  0  0  0  0  0  0  0  0  0  0  0
    0.5125    2.8979   13.8523 C   0  0  1  0  0  0  0  0  0  0  0  0
    1.7691    2.6953   14.6440 C   0  0  0  0  0  0  0  0  0  0  0  0
    0.7327    3.1580   12.4497 N   0  0  0  0  0  0  0  0  0  0  0  0
    0.7740    2.2808   11.4248 C   0  0  0  0  0  0  0  0  0  0  0  0
    0.6038    0.8282   11.4716 C   0  0  0  0  0  0  0  0  0  0  0  0
    1.0083    2.9479   10.2576 N   0  0  0  0  0  0  0  0  0  0  0  0
    1.1124    4.2115   10.5348 N   0  0  0  0  0  0  0  0  0  0  0  0
    0.9490    4.3676   11.8600 C   0  0  0  0  0  0  0  0  0  0  0  0
    1.0109    5.7056   12.4975 C   0  0  0  0  0  0  0  0  0  0  0  0
   -0.3248    5.9945   13.1931 C   0  0  0  0  0  0  0  0  0  0  0  0
    1.1411    6.7217   11.3674 C   0  0  0  0  0  0  0  0  0  0  0  0
  1  2  2  0
  2  3  1  0
  3  4  1  0
  4  5  1  0
  5  6  1  0
  6  7  1  0
  7  8  1  0
  6  9  1  0
  6 10  1  0
  2 11  1  0
 11 12  1  0
 12 13  1  0
 13 14  2  0
 14 15  1  0
 15 16  2  0
 16 17  1  0
 17 18  2  0
 12 19  1  6
 19 20  1  0
 21 20  1  1
 21 22  1  0
 22 23  1  1
 23 24  1  0
 25 24  1  1
 25 26  1  0
 26 27  1  0
 27 28  1  0
 27 29  1  6
 29 30  1  0
 30 31  1  0
 30 32  2  0
 32 33  1  0
 33 34  2  0
 34 35  1  0
 35 36  1  0
 35 37  1  0
  8  3  1  0
 18 13  1  0
 25 21  1  0
 34 29  1  0
 28 22  1  0
M  CHG  1  21   1
M  END
$$$$
