
     RDKit          3D

 37 41  0  0  0  0  0  0  0  0999 V2000
   -0.0984   -2.7095   17.9024 O   0  0  0  0  0  0  0  0  0  0  0  0
    1.1507   -2.8587   17.7018 C   0  0  0  0  0  0  0  0  0  0  0  0
    1.9795   -3.7425   18.5595 C   0  0  0  0  0  0  0  0  0  0  0  0
    1.7644   -3.5125   20.0168 C   0  0  0  0  0  0  0  0  0  0  0  0
    0.7035   -4.4199   20.6031 C   0  0  0  0  0  0  0  0  0  0  0  0
    1.2005   -5.8459   20.5284 C   0  0  0  0  0  0  0  0  0  0  0  0
    2.0284   -6.1245   19.3177 C   0  0  0  0  0  0  0  0  0  0  0  0
    1.6305   -5.1787   18.2085 C   0  0  0  0  0  0  0  0  0  0  0  0
    1.9789   -6.1105   21.6420 F   0  0  0  0  0  0  0  0  0  0  0  0
    0.1236   -6.6973   20.5484 F   0  0  0  0  0  0  0  0  0  0  0  0
    1.6803   -2.1216   16.6065 N   0  0  0  0  0  0  0  0  0  0  0  0
    0.8275   -1.5812   15.5483 C   0  0  2  0  0  0  0  0  0  0  0  0
    0.5660   -2.6567   14.5929 C   0  0  0  0  0  0  0  0  0  0  0  0
    1.6851   -3.1022   13.8768 C   0  0  0  0  0  0  0  0  0  0  0  0
    1.6162   -4.1101   12.9470 C   0  0  0  0  0  0  0  0  0  0  0  0
    0.3957   -4.7029   12.7132 C   0  0  0  0  0  0  0  0  0  0  0  0
   -0.7048   -4.2660   13.4165 C   0  0  0  0  0  0  0  0  0  0  0  0
   -0.6288   -3.2543   14.3483 C   0  0  0  0  0  0  0  0  0  0  0  0
    1.3415   -0.3068   14.9946 C   0  0  0  0  0  0  0  0  0  0  0  0
    0.4865    0.3878   13.9996 C   0  0  0  0  0  0  0  0  0  0  0  0
    1.1255    1.6425   13.6503 N   0  0  2  0  0  4  0  0  0  0  0  0
    0.2126    2.6085   13.1119 C   0  0  2  0  0  0  0  0  0  0  0  0
   -0.0384    2.1887   11.6624 C   0  0  0  0  0  0  0  0  0  0  0  0
    1.2856    1.5885   11.2895 C   0  0  0  0  0  0  0  0  0  0  0  0
    2.0852    1.4982   12.5833 C   0  0  1  0  0  0  0  0  0  0  0  0
    2.9839    2.7164   12.6262 C   0  0  0  0  0  0  0  0  0  0  0  0
    2.2041    3.9979   12.4784 C   0  0  1  0  0  0  0  0  0  0  0  0
    0.8552    3.9603   13.1309 C   0  0  0  0  0  0  0  0  0  0  0  0
    3.0108    5.1348   12.8528 N   0  0  0  0  0  0  0  0  0  0  0  0
    2.6716    6.4410   12.8715 C   0  0  0  0  0  0  0  0  0  0  0  0
    1.3880    7.0462   12.5149 C   0  0  0  0  0  0  0  0  0  0  0  0
    3.7352    7.1864   13.2904 N   0  0  0  0  0  0  0  0  0  0  0  0
    4.7200    6.3759   13.5304 N   0  0  0  0  0  0  0  0  0  0  0  0
    4.3074    5.1226   13.2729 C   0  0  0  0  0  0  0  0  0  0  0  0
    5.2072    3.9570   13.4516 C   0  0  0  0  0  0  0  0  0  0  0  0
    5.0656    3.0216   12.2449 C   0  0  0  0  0  0  0  0  0  0  0  0
    4.6882    3.1868   14.6616 C   0  0  0  0  0  0  0  0  0  0  0  0
  1  2  2  0
  2  3  1  0
  3  4  1  0
  4  5  1  0
  5  6  1  0
  6  7  1  0
  7  8  1  0
  6  9  1  0
  6 10  1  0
  2 11  1  0
 11 12  1  0
 12 13  1  0
 13 14  2  0
 14 15  1  0
 15 16  2  0
 16 17  1  0
 17 18  2  0
 12 19  1  6
 19 20  1  0
 21 20  1  6
 21 22  1  0
 22 23  1  6
 23 24  1  0
 25 24  1  6
 25 26  1  0
 26 27  1  0
 27 28  1  0
 27 29  1  1
 29 30  1  0
 30 31  1  0
 30 32  2  0
 32 33  1  0
 33 34  2  0
 34 35  1  0
 35 36  1  0
 35 37  1  0
  8  3  1  0
 18 13  1  0
 25 21  1  0
 34 29  1  0
 28 22  1  0
M  CHG  1  21   1
M  END
$$$$
