
     RDKit          3D

 37 41  0  0  0  0  0  0  0  0999 V2000
    1.3930   -4.5917   17.0691 O   0  0  0  0  0  0  0  0  0  0  0  0
    1.9291   -3.8524   17.9571 C   0  0  0  0  0  0  0  0  0  0  0  0
    1.9181   -4.2245   19.3941 C   0  0  0  0  0  0  0  0  0  0  0  0
    0.6742   -3.8008   20.0986 C   0  0  0  0  0  0  0  0  0  0  0  0
   -0.3901   -4.8776   20.1076 C   0  0  0  0  0  0  0  0  0  0  0  0
    0.1156   -6.0419   20.9291 C   0  0  0  0  0  0  0  0  0  0  0  0
    1.5881   -6.2582   20.8107 C   0  0  0  0  0  0  0  0  0  0  0  0
    2.0671   -5.7340   19.4769 C   0  0  0  0  0  0  0  0  0  0  0  0
   -0.1709   -5.8099   22.2633 F   0  0  0  0  0  0  0  0  0  0  0  0
   -0.5438   -7.1825   20.5430 F   0  0  0  0  0  0  0  0  0  0  0  0
    2.5304   -2.6591   17.4691 N   0  0  0  0  0  0  0  0  0  0  0  0
    2.8123   -2.4554   16.0486 C   0  0  2  0  0  0  0  0  0  0  0  0
    4.0836   -3.1117   15.7472 C   0  0  0  0  0  0  0  0  0  0  0  0
    5.1832   -2.6447   16.4797 C   0  0  0  0  0  0  0  0  0  0  0  0
    6.4474   -3.1576   16.3255 C   0  0  0  0  0  0  0  0  0  0  0  0
    6.6360   -4.1714   15.4132 C   0  0  0  0  0  0  0  0  0  0  0  0
    5.5560   -4.6313   14.6929 C   0  0  0  0  0  0  0  0  0  0  0  0
    4.2901   -4.1124   14.8525 C   0  0  0  0  0  0  0  0  0  0  0  0
    2.6783   -1.0386   15.6365 C   0  0  0  0  0  0  0  0  0  0  0  0
    1.4756   -0.6795   14.8438 C   0  0  0  0  0  0  0  0  0  0  0  0
    1.6862    0.6371   14.2722 N   0  0  2  0  0  4  0  0  0  0  0  0
    0.4639    1.3427   14.0184 C   0  0  2  0  0  0  0  0  0  0  0  0
   -0.1115    0.7404   12.7352 C   0  0  0  0  0  0  0  0  0  0  0  0
    1.1377    0.3840   11.9838 C   0  0  0  0  0  0  0  0  0  0  0  0
    2.2882    0.5837   12.9627 C   0  0  1  0  0  0  0  0  0  0  0  0
    2.8655    1.9554   12.6826 C   0  0  0  0  0  0  0  0  0  0  0  0
    1.8143    3.0338   12.7476 C   0  0  1  0  0  0  0  0  0  0  0  0
    0.7669    2.7911   13.7921 C   0  0  0  0  0  0  0  0  0  0  0  0
    2.4237    4.3405   12.8137 N   0  0  0  0  0  0  0  0  0  0  0  0
    3.0888    4.9108   13.8403 C   0  0  0  0  0  0  0  0  0  0  0  0
    3.3667    4.3464   15.1614 C   0  0  0  0  0  0  0  0  0  0  0  0
    3.5028    6.1609   13.4823 N   0  0  0  0  0  0  0  0  0  0  0  0
    3.1113    6.3767   12.2639 N   0  0  0  0  0  0  0  0  0  0  0  0
    2.4530    5.2866   11.8329 C   0  0  0  0  0  0  0  0  0  0  0  0
    1.8771    5.2167   10.4677 C   0  0  0  0  0  0  0  0  0  0  0  0
    2.8592    5.8482    9.4737 C   0  0  0  0  0  0  0  0  0  0  0  0
    0.6346    6.1015   10.4726 C   0  0  0  0  0  0  0  0  0  0  0  0
  1  2  2  0
  2  3  1  0
  3  4  1  0
  4  5  1  0
  5  6  1  0
  6  7  1  0
  7  8  1  0
  6  9  1  0
  6 10  1  0
  2 11  1  0
 11 12  1  0
 12 13  1  0
 13 14  2  0
 14 15  1  0
 15 16  2  0
 16 17  1  0
 17 18  2  0
 12 19  1  1
 19 20  1  0
 21 20  1  6
 21 22  1  0
 22 23  1  6
 23 24  1  0
 25 24  1  6
 25 26  1  0
 26 27  1  0
 27 28  1  0
 27 29  1  1
 29 30  1  0
 30 31  1  0
 30 32  2  0
 32 33  1  0
 33 34  2  0
 34 35  1  0
 35 36  1  0
 35 37  1  0
  8  3  1  0
 18 13  1  0
 25 21  1  0
 34 29  1  0
 28 22  1  0
M  CHG  1  21   1
M  END
$$$$
