
     RDKit          3D

 37 41  0  0  0  0  0  0  0  0999 V2000
    0.4147   -3.9080   17.2252 O   0  0  0  0  0  0  0  0  0  0  0  0
    1.5223   -3.5637   17.7517 C   0  0  0  0  0  0  0  0  0  0  0  0
    2.0859   -4.2792   18.9239 C   0  0  0  0  0  0  0  0  0  0  0  0
    1.0878   -4.5013   20.0090 C   0  0  0  0  0  0  0  0  0  0  0  0
    0.3849   -5.8374   19.8943 C   0  0  0  0  0  0  0  0  0  0  0  0
    1.4048   -6.9332   20.1071 C   0  0  0  0  0  0  0  0  0  0  0  0
    2.7573   -6.5993   19.5703 C   0  0  0  0  0  0  0  0  0  0  0  0
    2.6171   -5.6149   18.4326 C   0  0  0  0  0  0  0  0  0  0  0  0
    1.5359   -7.1690   21.4648 F   0  0  0  0  0  0  0  0  0  0  0  0
    0.9530   -8.0868   19.5153 F   0  0  0  0  0  0  0  0  0  0  0  0
    2.1668   -2.4551   17.1358 N   0  0  0  0  0  0  0  0  0  0  0  0
    1.8228   -2.0073   15.7867 C   0  0  2  0  0  0  0  0  0  0  0  0
    2.2829   -3.0282   14.8466 C   0  0  0  0  0  0  0  0  0  0  0  0
    3.6643   -3.2637   14.8521 C   0  0  0  0  0  0  0  0  0  0  0  0
    4.2601   -4.1945   14.0374 C   0  0  0  0  0  0  0  0  0  0  0  0
    3.4630   -4.9226   13.1829 C   0  0  0  0  0  0  0  0  0  0  0  0
    2.1053   -4.6922   13.1767 C   0  0  0  0  0  0  0  0  0  0  0  0
    1.5137   -3.7568   13.9969 C   0  0  0  0  0  0  0  0  0  0  0  0
    2.2500   -0.6138   15.5206 C   0  0  0  0  0  0  0  0  0  0  0  0
    1.2360    0.4511   15.7243 C   0  0  0  0  0  0  0  0  0  0  0  0
    1.6985    1.6515   15.0537 N   0  0  2  0  0  4  0  0  0  0  0  0
    1.1878    2.8563   15.6401 C   0  0  2  0  0  0  0  0  0  0  0  0
   -0.2546    2.9861   15.1472 C   0  0  0  0  0  0  0  0  0  0  0  0
   -0.1619    2.3728   13.7806 C   0  0  0  0  0  0  0  0  0  0  0  0
    1.2241    1.7457   13.6949 C   0  0  1  0  0  0  0  0  0  0  0  0
    2.1114    2.7451   12.9827 C   0  0  0  0  0  0  0  0  0  0  0  0
    2.0923    4.0947   13.6536 C   0  0  1  0  0  0  0  0  0  0  0  0
    1.9856    4.0230   15.1471 C   0  0  0  0  0  0  0  0  0  0  0  0
    3.1769    4.9195   13.1772 N   0  0  0  0  0  0  0  0  0  0  0  0
    4.5054    4.7414   13.3357 C   0  0  0  0  0  0  0  0  0  0  0  0
    5.1942    3.6569   14.0361 C   0  0  0  0  0  0  0  0  0  0  0  0
    5.1816    5.7577   12.7257 N   0  0  0  0  0  0  0  0  0  0  0  0
    4.3069    6.5568   12.1959 N   0  0  0  0  0  0  0  0  0  0  0  0
    3.0804    6.0713   12.4550 C   0  0  0  0  0  0  0  0  0  0  0  0
    1.8561    6.7609   11.9795 C   0  0  0  0  0  0  0  0  0  0  0  0
    2.2177    7.6751   10.8027 C   0  0  0  0  0  0  0  0  0  0  0  0
    1.4006    7.6729   13.1142 C   0  0  0  0  0  0  0  0  0  0  0  0
  1  2  2  0
  2  3  1  0
  3  4  1  0
  4  5  1  0
  5  6  1  0
  6  7  1  0
  7  8  1  0
  6  9  1  0
  6 10  1  0
  2 11  1  0
 11 12  1  0
 12 13  1  0
 13 14  2  0
 14 15  1  0
 15 16  2  0
 16 17  1  0
 17 18  2  0
 12 19  1  6
 19 20  1  0
 21 20  1  1
 21 22  1  0
 22 23  1  6
 23 24  1  0
 25 24  1  1
 25 26  1  0
 26 27  1  0
 27 28  1  0
 27 29  1  1
 29 30  1  0
 30 31  1  0
 30 32  2  0
 32 33  1  0
 33 34  2  0
 34 35  1  0
 35 36  1  0
 35 37  1  0
  8  3  1  0
 18 13  1  0
 25 21  1  0
 34 29  1  0
 28 22  1  0
M  CHG  1  21   1
M  END
$$$$
