
     RDKit          3D

 37 41  0  0  0  0  0  0  0  0999 V2000
    1.8202   -0.4970   11.6588 O   0  0  0  0  0  0  0  0  0  0  0  0
    0.5628   -0.6571   11.5325 C   0  0  0  0  0  0  0  0  0  0  0  0
   -0.2291    0.1235   10.5490 C   0  0  0  0  0  0  0  0  0  0  0  0
   -0.2792    1.5803   10.8627 C   0  0  0  0  0  0  0  0  0  0  0  0
    0.8155    2.3664   10.1725 C   0  0  0  0  0  0  0  0  0  0  0  0
    0.5783    2.3063    8.6805 C   0  0  0  0  0  0  0  0  0  0  0  0
    0.0018    1.0078    8.2218 C   0  0  0  0  0  0  0  0  0  0  0  0
    0.4018   -0.0871    9.1833 C   0  0  0  0  0  0  0  0  0  0  0  0
   -0.3058    3.3100    8.3241 F   0  0  0  0  0  0  0  0  0  0  0  0
    1.7654    2.5320    8.0287 F   0  0  0  0  0  0  0  0  0  0  0  0
   -0.0136   -1.6293   12.3962 N   0  0  0  0  0  0  0  0  0  0  0  0
    0.7908   -2.4059   13.3390 C   0  0  2  0  0  0  0  0  0  0  0  0
    0.7984   -3.7944   12.8811 C   0  0  0  0  0  0  0  0  0  0  0  0
   -0.3220   -4.1812   12.1336 C   0  0  0  0  0  0  0  0  0  0  0  0
   -0.4696   -5.4464   11.6213 C   0  0  0  0  0  0  0  0  0  0  0  0
    0.5265   -6.3678   11.8549 C   0  0  0  0  0  0  0  0  0  0  0  0
    1.6282   -5.9888   12.5892 C   0  0  0  0  0  0  0  0  0  0  0  0
    1.7702   -4.7175   13.1003 C   0  0  0  0  0  0  0  0  0  0  0  0
    0.4043   -2.1703   14.7497 C   0  0  0  0  0  0  0  0  0  0  0  0
    1.2949   -2.7351   15.7945 C   0  0  0  0  0  0  0  0  0  0  0  0
    1.8940   -1.6330   16.5233 N   0  0  2  0  0  4  0  0  0  0  0  0
    3.2269   -1.9131   16.9717 C   0  0  2  0  0  0  0  0  0  0  0  0
    3.0778   -2.8098   18.2022 C   0  0  0  0  0  0  0  0  0  0  0  0
    1.7953   -2.3001   18.7920 C   0  0  0  0  0  0  0  0  0  0  0  0
    1.2076   -1.3467   17.7590 C   0  0  1  0  0  0  0  0  0  0  0  0
    1.6107    0.0518   18.1776 C   0  0  0  0  0  0  0  0  0  0  0  0
    3.1027    0.1812   18.3489 C   0  0  1  0  0  0  0  0  0  0  0  0
    3.8937   -0.6336   17.3703 C   0  0  0  0  0  0  0  0  0  0  0  0
    3.4927    1.5694   18.4142 N   0  0  0  0  0  0  0  0  0  0  0  0
    3.0627    2.5280   19.2613 C   0  0  0  0  0  0  0  0  0  0  0  0
    2.0832    2.4060   20.3415 C   0  0  0  0  0  0  0  0  0  0  0  0
    3.6889    3.7069   18.9777 N   0  0  0  0  0  0  0  0  0  0  0  0
    4.4925    3.5013   17.9796 N   0  0  0  0  0  0  0  0  0  0  0  0
    4.3935    2.2105   17.6171 C   0  0  0  0  0  0  0  0  0  0  0  0
    5.1924    1.6551   16.4975 C   0  0  0  0  0  0  0  0  0  0  0  0
    6.2491    0.6967   17.0596 C   0  0  0  0  0  0  0  0  0  0  0  0
    5.9515    2.8255   15.8806 C   0  0  0  0  0  0  0  0  0  0  0  0
  1  2  2  0
  2  3  1  0
  3  4  1  0
  4  5  1  0
  5  6  1  0
  6  7  1  0
  7  8  1  0
  6  9  1  0
  6 10  1  0
  2 11  1  0
 11 12  1  0
 12 13  1  0
 13 14  2  0
 14 15  1  0
 15 16  2  0
 16 17  1  0
 17 18  2  0
 12 19  1  1
 19 20  1  0
 21 20  1  1
 21 22  1  0
 22 23  1  1
 23 24  1  0
 25 24  1  1
 25 26  1  0
 26 27  1  0
 27 28  1  0
 27 29  1  6
 29 30  1  0
 30 31  1  0
 30 32  2  0
 32 33  1  0
 33 34  2  0
 34 35  1  0
 35 36  1  0
 35 37  1  0
  8  3  1  0
 18 13  1  0
 25 21  1  0
 34 29  1  0
 28 22  1  0
M  CHG  1  21   1
M  END
$$$$
