
     RDKit          3D

 37 41  0  0  0  0  0  0  0  0999 V2000
    1.2461  -20.7836  -10.2716 O   0  0  0  0  0  0  0  0  0  0  0  0
    0.8895  -21.8219   -9.6257 C   0  0  0  0  0  0  0  0  0  0  0  0
    0.5376  -23.0884  -10.3154 C   0  0  0  0  0  0  0  0  0  0  0  0
   -0.8926  -23.1496  -10.7325 C   0  0  0  0  0  0  0  0  0  0  0  0
   -1.1125  -22.6545  -12.1463 C   0  0  0  0  0  0  0  0  0  0  0  0
   -0.4146  -23.6002  -13.0974 C   0  0  0  0  0  0  0  0  0  0  0  0
    0.8528  -24.1674  -12.5487 C   0  0  0  0  0  0  0  0  0  0  0  0
    1.4346  -23.2095  -11.5354 C   0  0  0  0  0  0  0  0  0  0  0  0
   -1.2611  -24.6574  -13.3834 F   0  0  0  0  0  0  0  0  0  0  0  0
   -0.1462  -22.9389  -14.2703 F   0  0  0  0  0  0  0  0  0  0  0  0
    0.8557  -21.6732   -8.2114 N   0  0  0  0  0  0  0  0  0  0  0  0
    0.9260  -20.3629   -7.5656 C   0  0  2  0  0  0  0  0  0  0  0  0
    2.2478  -20.2373   -6.9533 C   0  0  0  0  0  0  0  0  0  0  0  0
    2.4580  -21.0361   -5.8213 C   0  0  0  0  0  0  0  0  0  0  0  0
    3.6451  -21.0451   -5.1315 C   0  0  0  0  0  0  0  0  0  0  0  0
    4.6662  -20.2347   -5.5746 C   0  0  0  0  0  0  0  0  0  0  0  0
    4.4608  -19.4494   -6.6871 C   0  0  0  0  0  0  0  0  0  0  0  0
    3.2672  -19.4452   -7.3749 C   0  0  0  0  0  0  0  0  0  0  0  0
   -0.2416  -20.0912   -6.6949 C   0  0  0  0  0  0  0  0  0  0  0  0
   -1.1584  -19.0035   -7.1192 C   0  0  0  0  0  0  0  0  0  0  0  0
   -2.1030  -18.7622   -6.0449 N   0  0  2  0  0  4  0  0  0  0  0  0
   -3.3688  -18.2725   -6.5076 C   0  0  2  0  0  0  0  0  0  0  0  0
   -3.1574  -16.7904   -6.8227 C   0  0  0  0  0  0  0  0  0  0  0  0
   -2.1301  -16.4086   -5.7974 C   0  0  0  0  0  0  0  0  0  0  0  0
   -1.6739  -17.7122   -5.1541 C   0  0  1  0  0  0  0  0  0  0  0  0
   -2.4653  -17.8660   -3.8721 C   0  0  0  0  0  0  0  0  0  0  0  0
   -3.9512  -17.7917   -4.1144 C   0  0  1  0  0  0  0  0  0  0  0  0
   -4.3808  -18.4056   -5.4127 C   0  0  0  0  0  0  0  0  0  0  0  0
   -4.6825  -18.2679   -2.9646 N   0  0  0  0  0  0  0  0  0  0  0  0
   -5.0589  -19.5293   -2.6666 C   0  0  0  0  0  0  0  0  0  0  0  0
   -4.8198  -20.7495   -3.4381 C   0  0  0  0  0  0  0  0  0  0  0  0
   -5.7345  -19.5397   -1.4810 N   0  0  0  0  0  0  0  0  0  0  0  0
   -5.7849  -18.3200   -1.0403 N   0  0  0  0  0  0  0  0  0  0  0  0
   -5.1531  -17.5263   -1.9224 C   0  0  0  0  0  0  0  0  0  0  0  0
   -5.0351  -16.0637   -1.7048 C   0  0  0  0  0  0  0  0  0  0  0  0
   -5.4006  -15.7395   -0.2513 C   0  0  0  0  0  0  0  0  0  0  0  0
   -6.0990  -15.4056   -2.5776 C   0  0  0  0  0  0  0  0  0  0  0  0
  1  2  2  0
  2  3  1  0
  3  4  1  0
  4  5  1  0
  5  6  1  0
  6  7  1  0
  7  8  1  0
  6  9  1  0
  6 10  1  0
  2 11  1  0
 11 12  1  0
 12 13  1  0
 13 14  2  0
 14 15  1  0
 15 16  2  0
 16 17  1  0
 17 18  2  0
 12 19  1  1
 19 20  1  0
 21 20  1  6
 21 22  1  0
 22 23  1  1
 23 24  1  0
 25 24  1  6
 25 26  1  0
 26 27  1  0
 27 28  1  0
 27 29  1  1
 29 30  1  0
 30 31  1  0
 30 32  2  0
 32 33  1  0
 33 34  2  0
 34 35  1  0
 35 36  1  0
 35 37  1  0
  8  3  1  0
 18 13  1  0
 25 21  1  0
 34 29  1  0
 28 22  1  0
M  CHG  1  21   1
M  END
$$$$
