
     RDKit          3D

 37 41  0  0  0  0  0  0  0  0999 V2000
    2.1418    2.3571   10.6335 O   0  0  0  0  0  0  0  0  0  0  0  0
    0.8877    2.4656   10.4386 C   0  0  0  0  0  0  0  0  0  0  0  0
    0.3234    3.5083    9.5453 C   0  0  0  0  0  0  0  0  0  0  0  0
    1.2468    4.6596    9.3336 C   0  0  0  0  0  0  0  0  0  0  0  0
    2.1214    4.4920    8.1092 C   0  0  0  0  0  0  0  0  0  0  0  0
    1.2354    4.5052    6.8841 C   0  0  0  0  0  0  0  0  0  0  0  0
   -0.0986    3.8735    7.1081 C   0  0  0  0  0  0  0  0  0  0  0  0
    0.0101    2.8487    8.2132 C   0  0  0  0  0  0  0  0  0  0  0  0
    1.0216    5.8169    6.4969 F   0  0  0  0  0  0  0  0  0  0  0  0
    1.8788    3.8571    5.8588 F   0  0  0  0  0  0  0  0  0  0  0  0
    0.0828    1.5218   11.1350 N   0  0  0  0  0  0  0  0  0  0  0  0
    0.6645    0.4361   11.9236 C   0  0  2  0  0  0  0  0  0  0  0  0
    0.2941   -0.8265   11.2862 C   0  0  0  0  0  0  0  0  0  0  0  0
   -1.0834   -1.0689   11.2005 C   0  0  0  0  0  0  0  0  0  0  0  0
   -1.6014   -2.2024   10.6244 C   0  0  0  0  0  0  0  0  0  0  0  0
   -0.7273   -3.1346   10.1120 C   0  0  0  0  0  0  0  0  0  0  0  0
    0.6267   -2.8974   10.1955 C   0  0  0  0  0  0  0  0  0  0  0  0
    1.1400   -1.7579   10.7747 C   0  0  0  0  0  0  0  0  0  0  0  0
    0.3759    0.5629   13.3713 C   0  0  0  0  0  0  0  0  0  0  0  0
   -0.1564   -0.6401   14.0589 C   0  0  0  0  0  0  0  0  0  0  0  0
    0.7893   -1.0297   15.0878 N   0  0  2  0  0  4  0  0  0  0  0  0
    1.2849   -2.3648   14.9205 C   0  0  2  0  0  0  0  0  0  0  0  0
    0.1733   -3.2919   15.4157 C   0  0  0  0  0  0  0  0  0  0  0  0
   -0.4409   -2.4678   16.5092 C   0  0  0  0  0  0  0  0  0  0  0  0
    0.1910   -1.0856   16.3989 C   0  0  1  0  0  0  0  0  0  0  0  0
    1.3215   -1.0417   17.4056 C   0  0  0  0  0  0  0  0  0  0  0  0
    2.2952   -2.1756   17.2100 C   0  0  1  0  0  0  0  0  0  0  0  0
    2.5008   -2.5514   15.7735 C   0  0  0  0  0  0  0  0  0  0  0  0
    3.5174   -1.9333   17.9386 N   0  0  0  0  0  0  0  0  0  0  0  0
    4.5230   -1.0835   17.6414 C   0  0  0  0  0  0  0  0  0  0  0  0
    4.6339   -0.1808   16.4951 C   0  0  0  0  0  0  0  0  0  0  0  0
    5.4929   -1.1663   18.5979 N   0  0  0  0  0  0  0  0  0  0  0  0
    5.1128   -2.0431   19.4760 N   0  0  0  0  0  0  0  0  0  0  0  0
    3.9155   -2.5251   19.1001 C   0  0  0  0  0  0  0  0  0  0  0  0
    3.2058   -3.5522   19.9012 C   0  0  0  0  0  0  0  0  0  0  0  0
    3.9866   -4.8703   19.8359 C   0  0  0  0  0  0  0  0  0  0  0  0
    1.8714   -3.8026   19.2060 C   0  0  0  0  0  0  0  0  0  0  0  0
  1  2  2  0
  2  3  1  0
  3  4  1  0
  4  5  1  0
  5  6  1  0
  6  7  1  0
  7  8  1  0
  6  9  1  0
  6 10  1  0
  2 11  1  0
 11 12  1  0
 12 13  1  0
 13 14  2  0
 14 15  1  0
 15 16  2  0
 16 17  1  0
 17 18  2  0
 12 19  1  1
 19 20  1  0
 21 20  1  6
 21 22  1  0
 22 23  1  1
 23 24  1  0
 25 24  1  6
 25 26  1  0
 26 27  1  0
 27 28  1  0
 27 29  1  6
 29 30  1  0
 30 31  1  0
 30 32  2  0
 32 33  1  0
 33 34  2  0
 34 35  1  0
 35 36  1  0
 35 37  1  0
  8  3  1  0
 18 13  1  0
 25 21  1  0
 34 29  1  0
 28 22  1  0
M  CHG  1  21   1
M  END
$$$$
