
     RDKit          3D

 37 41  0  0  0  0  0  0  0  0999 V2000
    2.1196   -3.9541   15.1595 O   0  0  0  0  0  0  0  0  0  0  0  0
    0.8861   -3.8859   15.4699 C   0  0  0  0  0  0  0  0  0  0  0  0
   -0.1311   -4.7529   14.8238 C   0  0  0  0  0  0  0  0  0  0  0  0
   -0.4692   -4.3239   13.4365 C   0  0  0  0  0  0  0  0  0  0  0  0
    0.3717   -5.0190   12.3867 C   0  0  0  0  0  0  0  0  0  0  0  0
    0.0356   -6.4930   12.4047 C   0  0  0  0  0  0  0  0  0  0  0  0
   -0.2817   -7.0140   13.7673 C   0  0  0  0  0  0  0  0  0  0  0  0
    0.4201   -6.1683   14.8044 C   0  0  0  0  0  0  0  0  0  0  0  0
   -1.0697   -6.7128   11.6008 F   0  0  0  0  0  0  0  0  0  0  0  0
    1.0906   -7.1995   11.8823 F   0  0  0  0  0  0  0  0  0  0  0  0
    0.5656   -2.9268   16.4703 N   0  0  0  0  0  0  0  0  0  0  0  0
    1.5689   -2.0206   17.0282 C   0  0  2  0  0  0  0  0  0  0  0  0
    1.3775   -1.9805   18.4772 C   0  0  0  0  0  0  0  0  0  0  0  0
    0.1386   -1.4812   18.9007 C   0  0  0  0  0  0  0  0  0  0  0  0
   -0.2064   -1.3832   20.2260 C   0  0  0  0  0  0  0  0  0  0  0  0
    0.7057   -1.7937   21.1722 C   0  0  0  0  0  0  0  0  0  0  0  0
    1.9236   -2.2848   20.7572 C   0  0  0  0  0  0  0  0  0  0  0  0
    2.2635   -2.3806   19.4257 C   0  0  0  0  0  0  0  0  0  0  0  0
    1.6165   -0.7175   16.3248 C   0  0  0  0  0  0  0  0  0  0  0  0
    2.9391   -0.2760   15.8155 C   0  0  0  0  0  0  0  0  0  0  0  0
    2.7740    1.0237   15.1926 N   0  0  2  0  0  4  0  0  0  0  0  0
    2.4030    0.9422   13.8099 C   0  0  2  0  0  0  0  0  0  0  0  0
    3.6857    0.6015   13.0489 C   0  0  0  0  0  0  0  0  0  0  0  0
    4.7222    1.3022   13.8778 C   0  0  0  0  0  0  0  0  0  0  0  0
    4.0052    1.7729   15.1371 C   0  0  1  0  0  0  0  0  0  0  0  0
    3.6331    3.2232   14.9104 C   0  0  0  0  0  0  0  0  0  0  0  0
    2.8330    3.4093   13.6465 C   0  0  1  0  0  0  0  0  0  0  0  0
    1.8972    2.2754   13.3542 C   0  0  0  0  0  0  0  0  0  0  0  0
    2.2106    4.7114   13.6209 N   0  0  0  0  0  0  0  0  0  0  0  0
    1.3198    5.2384   14.4871 C   0  0  0  0  0  0  0  0  0  0  0  0
    0.7516    4.6211   15.6860 C   0  0  0  0  0  0  0  0  0  0  0  0
    0.9855    6.5010   14.0917 N   0  0  0  0  0  0  0  0  0  0  0  0
    1.6455    6.7665   13.0062 N   0  0  0  0  0  0  0  0  0  0  0  0
    2.3980    5.6962   12.6974 C   0  0  0  0  0  0  0  0  0  0  0  0
    3.2766    5.6836   11.5023 C   0  0  0  0  0  0  0  0  0  0  0  0
    4.6296    6.3073   11.8652 C   0  0  0  0  0  0  0  0  0  0  0  0
    2.6317    6.6108   10.4770 C   0  0  0  0  0  0  0  0  0  0  0  0
  1  2  2  0
  2  3  1  0
  3  4  1  0
  4  5  1  0
  5  6  1  0
  6  7  1  0
  7  8  1  0
  6  9  1  0
  6 10  1  0
  2 11  1  0
 11 12  1  0
 12 13  1  0
 13 14  2  0
 14 15  1  0
 15 16  2  0
 16 17  1  0
 17 18  2  0
 12 19  1  6
 19 20  1  0
 21 20  1  6
 21 22  1  0
 22 23  1  6
 23 24  1  0
 25 24  1  6
 25 26  1  0
 26 27  1  0
 27 28  1  0
 27 29  1  1
 29 30  1  0
 30 31  1  0
 30 32  2  0
 32 33  1  0
 33 34  2  0
 34 35  1  0
 35 36  1  0
 35 37  1  0
  8  3  1  0
 18 13  1  0
 25 21  1  0
 34 29  1  0
 28 22  1  0
M  CHG  1  21   1
M  END
$$$$
