
     RDKit          3D

 37 41  0  0  0  0  0  0  0  0999 V2000
    0.5656   -5.2930   17.2983 O   0  0  0  0  0  0  0  0  0  0  0  0
   -0.1839   -4.3077   17.5982 C   0  0  0  0  0  0  0  0  0  0  0  0
   -1.4184   -4.4822   18.4040 C   0  0  0  0  0  0  0  0  0  0  0  0
   -2.6571   -4.1028   17.6661 C   0  0  0  0  0  0  0  0  0  0  0  0
   -3.2992   -5.2761   16.9565 C   0  0  0  0  0  0  0  0  0  0  0  0
   -3.7824   -6.2585   17.9993 C   0  0  0  0  0  0  0  0  0  0  0  0
   -2.9011   -6.3303   19.2023 C   0  0  0  0  0  0  0  0  0  0  0  0
   -1.4925   -5.9422   18.8170 C   0  0  0  0  0  0  0  0  0  0  0  0
   -5.0450   -5.8811   18.4230 F   0  0  0  0  0  0  0  0  0  0  0  0
   -3.8777   -7.5046   17.4308 F   0  0  0  0  0  0  0  0  0  0  0  0
    0.2498   -3.0453   17.1066 N   0  0  0  0  0  0  0  0  0  0  0  0
    1.6336   -2.8034   16.6995 C   0  0  2  0  0  0  0  0  0  0  0  0
    2.4806   -2.9623   17.8806 C   0  0  0  0  0  0  0  0  0  0  0  0
    2.1723   -2.1146   18.9530 C   0  0  0  0  0  0  0  0  0  0  0  0
    2.8635   -2.1394   20.1390 C   0  0  0  0  0  0  0  0  0  0  0  0
    3.9002   -3.0354   20.2741 C   0  0  0  0  0  0  0  0  0  0  0  0
    4.2040   -3.8691   19.2210 C   0  0  0  0  0  0  0  0  0  0  0  0
    3.5063   -3.8392   18.0336 C   0  0  0  0  0  0  0  0  0  0  0  0
    1.7917   -1.5480   15.9287 C   0  0  0  0  0  0  0  0  0  0  0  0
    0.9150   -1.3713   14.7439 C   0  0  0  0  0  0  0  0  0  0  0  0
    1.2022   -0.0760   14.1569 N   0  0  2  0  0  4  0  0  0  0  0  0
    0.0862    0.4816   13.4500 C   0  0  2  0  0  0  0  0  0  0  0  0
    0.0274   -0.2525   12.1091 C   0  0  0  0  0  0  0  0  0  0  0  0
    1.4810   -0.5204   11.8489 C   0  0  0  0  0  0  0  0  0  0  0  0
    2.2135   -0.1438   13.1308 C   0  0  1  0  0  0  0  0  0  0  0  0
    2.7419    1.2617   12.9340 C   0  0  0  0  0  0  0  0  0  0  0  0
    1.6492    2.2262   12.5492 C   0  0  1  0  0  0  0  0  0  0  0  0
    0.3330    1.9378   13.2060 C   0  0  0  0  0  0  0  0  0  0  0  0
    2.0958    3.5911   12.6941 N   0  0  0  0  0  0  0  0  0  0  0  0
    2.6796    4.1798   13.7591 C   0  0  0  0  0  0  0  0  0  0  0  0
    3.0139    3.5809   15.0517 C   0  0  0  0  0  0  0  0  0  0  0  0
    2.9421    5.4884   13.4748 N   0  0  0  0  0  0  0  0  0  0  0  0
    2.5364    5.7224   12.2644 N   0  0  0  0  0  0  0  0  0  0  0  0
    2.0178    4.5865   11.7662 C   0  0  0  0  0  0  0  0  0  0  0  0
    1.4646    4.5232   10.3913 C   0  0  0  0  0  0  0  0  0  0  0  0
    2.5769    4.8431    9.3855 C   0  0  0  0  0  0  0  0  0  0  0  0
    0.4416    5.6492   10.2805 C   0  0  0  0  0  0  0  0  0  0  0  0
  1  2  2  0
  2  3  1  0
  3  4  1  0
  4  5  1  0
  5  6  1  0
  6  7  1  0
  7  8  1  0
  6  9  1  0
  6 10  1  0
  2 11  1  0
 11 12  1  0
 12 13  1  0
 13 14  2  0
 14 15  1  0
 15 16  2  0
 16 17  1  0
 17 18  2  0
 12 19  1  1
 19 20  1  0
 21 20  1  6
 21 22  1  0
 22 23  1  6
 23 24  1  0
 25 24  1  6
 25 26  1  0
 26 27  1  0
 27 28  1  0
 27 29  1  1
 29 30  1  0
 30 31  1  0
 30 32  2  0
 32 33  1  0
 33 34  2  0
 34 35  1  0
 35 36  1  0
 35 37  1  0
  8  3  1  0
 18 13  1  0
 25 21  1  0
 34 29  1  0
 28 22  1  0
M  CHG  1  21   1
M  END
$$$$
