
     RDKit          3D

 37 41  0  0  0  0  0  0  0  0999 V2000
    4.4750   -2.0836   17.4625 O   0  0  0  0  0  0  0  0  0  0  0  0
    3.6963   -3.0480   17.1690 C   0  0  0  0  0  0  0  0  0  0  0  0
    4.2129   -4.4103   16.8844 C   0  0  0  0  0  0  0  0  0  0  0  0
    3.7964   -4.9267   15.5492 C   0  0  0  0  0  0  0  0  0  0  0  0
    4.8087   -4.6284   14.4635 C   0  0  0  0  0  0  0  0  0  0  0  0
    6.0770   -5.3921   14.7704 C   0  0  0  0  0  0  0  0  0  0  0  0
    6.3602   -5.5120   16.2314 C   0  0  0  0  0  0  0  0  0  0  0  0
    5.7288   -4.3502   16.9625 C   0  0  0  0  0  0  0  0  0  0  0  0
    5.9680   -6.6722   14.2551 F   0  0  0  0  0  0  0  0  0  0  0  0
    7.1343   -4.7717   14.1520 F   0  0  0  0  0  0  0  0  0  0  0  0
    2.3124   -2.7203   17.1360 N   0  0  0  0  0  0  0  0  0  0  0  0
    1.8128   -1.4130   17.5607 C   0  0  2  0  0  0  0  0  0  0  0  0
    1.0821   -1.5999   18.8132 C   0  0  0  0  0  0  0  0  0  0  0  0
    1.6735   -1.0145   19.9407 C   0  0  0  0  0  0  0  0  0  0  0  0
    1.1145   -1.0883   21.1926 C   0  0  0  0  0  0  0  0  0  0  0  0
   -0.0750   -1.7660   21.3396 C   0  0  0  0  0  0  0  0  0  0  0  0
   -0.6572   -2.3415   20.2322 C   0  0  0  0  0  0  0  0  0  0  0  0
   -0.0911   -2.2637   18.9789 C   0  0  0  0  0  0  0  0  0  0  0  0
    1.1061   -0.6914   16.4768 C   0  0  0  0  0  0  0  0  0  0  0  0
    1.6678   -0.8155   15.1083 C   0  0  0  0  0  0  0  0  0  0  0  0
    1.4243    0.4291   14.4039 N   0  0  2  0  0  4  0  0  0  0  0  0
    0.2657    0.3812   13.5604 C   0  0  2  0  0  0  0  0  0  0  0  0
    0.6877   -0.3901   12.3084 C   0  0  0  0  0  0  0  0  0  0  0  0
    2.1311    0.0022   12.1857 C   0  0  0  0  0  0  0  0  0  0  0  0
    2.4733    0.7512   13.4678 C   0  0  1  0  0  0  0  0  0  0  0  0
    2.3520    2.2280   13.1554 C   0  0  0  0  0  0  0  0  0  0  0  0
    0.9995    2.5752   12.5877 C   0  0  1  0  0  0  0  0  0  0  0  0
   -0.1233    1.7744   13.1751 C   0  0  0  0  0  0  0  0  0  0  0  0
    0.7841    4.0022   12.6125 N   0  0  0  0  0  0  0  0  0  0  0  0
    0.7216    4.8281   13.6782 C   0  0  0  0  0  0  0  0  0  0  0  0
    0.8581    4.4872   15.0946 C   0  0  0  0  0  0  0  0  0  0  0  0
    0.5018    6.1072   13.2564 N   0  0  0  0  0  0  0  0  0  0  0  0
    0.4272    6.0924   11.9608 N   0  0  0  0  0  0  0  0  0  0  0  0
    0.5954    4.8257   11.5429 C   0  0  0  0  0  0  0  0  0  0  0  0
    0.5651    4.4730   10.1025 C   0  0  0  0  0  0  0  0  0  0  0  0
    1.8217    5.0281    9.4213 C   0  0  0  0  0  0  0  0  0  0  0  0
   -0.6216    5.2154    9.4964 C   0  0  0  0  0  0  0  0  0  0  0  0
  1  2  2  0
  2  3  1  0
  3  4  1  0
  4  5  1  0
  5  6  1  0
  6  7  1  0
  7  8  1  0
  6  9  1  0
  6 10  1  0
  2 11  1  0
 11 12  1  0
 12 13  1  0
 13 14  2  0
 14 15  1  0
 15 16  2  0
 16 17  1  0
 17 18  2  0
 12 19  1  6
 19 20  1  0
 21 20  1  6
 21 22  1  0
 22 23  1  6
 23 24  1  0
 25 24  1  6
 25 26  1  0
 26 27  1  0
 27 28  1  0
 27 29  1  1
 29 30  1  0
 30 31  1  0
 30 32  2  0
 32 33  1  0
 33 34  2  0
 34 35  1  0
 35 36  1  0
 35 37  1  0
  8  3  1  0
 18 13  1  0
 25 21  1  0
 34 29  1  0
 28 22  1  0
M  CHG  1  21   1
M  END
$$$$
