
     RDKit          3D

 37 41  0  0  0  0  0  0  0  0999 V2000
   13.6143   -2.6696   -1.8826 O   0  0  0  0  0  0  0  0  0  0  0  0
   14.4415   -1.7012   -1.8576 C   0  0  0  0  0  0  0  0  0  0  0  0
   14.8591   -0.9985   -3.0968 C   0  0  0  0  0  0  0  0  0  0  0  0
   15.6591   -1.8582   -4.0155 C   0  0  0  0  0  0  0  0  0  0  0  0
   14.8062   -2.5656   -5.0474 C   0  0  0  0  0  0  0  0  0  0  0  0
   14.1984   -1.5241   -5.9595 C   0  0  0  0  0  0  0  0  0  0  0  0
   13.8622   -0.2470   -5.2631 C   0  0  0  0  0  0  0  0  0  0  0  0
   13.5990   -0.5261   -3.8015 C   0  0  0  0  0  0  0  0  0  0  0  0
   15.0978   -1.2299   -6.9697 F   0  0  0  0  0  0  0  0  0  0  0  0
   13.0638   -2.0401   -6.5352 F   0  0  0  0  0  0  0  0  0  0  0  0
   14.9261   -1.3520   -0.5666 N   0  0  0  0  0  0  0  0  0  0  0  0
   14.1937   -1.6847    0.6548 C   0  0  2  0  0  0  0  0  0  0  0  0
   13.0893   -0.7356    0.7855 C   0  0  0  0  0  0  0  0  0  0  0  0
   13.4705    0.5989    0.9786 C   0  0  0  0  0  0  0  0  0  0  0  0
   12.5595    1.6174    1.1119 C   0  0  0  0  0  0  0  0  0  0  0  0
   11.2189    1.3089    1.0527 C   0  0  0  0  0  0  0  0  0  0  0  0
   10.8431   -0.0023    0.8628 C   0  0  0  0  0  0  0  0  0  0  0  0
   11.7623   -1.0196    0.7296 C   0  0  0  0  0  0  0  0  0  0  0  0
   15.0826   -1.8405    1.8299 C   0  0  0  0  0  0  0  0  0  0  0  0
   15.7292   -3.1641    2.0133 C   0  0  0  0  0  0  0  0  0  0  0  0
   15.9036   -3.3900    3.4357 N   0  0  2  0  0  4  0  0  0  0  0  0
   17.1114   -2.8159    3.9530 C   0  0  2  0  0  0  0  0  0  0  0  0
   18.2394   -3.7622    3.5374 C   0  0  0  0  0  0  0  0  0  0  0  0
   17.5434   -5.0915    3.5685 C   0  0  0  0  0  0  0  0  0  0  0  0
   16.0630   -4.7862    3.7603 C   0  0  1  0  0  0  0  0  0  0  0  0
   15.7756   -4.9342    5.2397 C   0  0  0  0  0  0  0  0  0  0  0  0
   16.6893   -4.0791    6.0800 C   0  0  1  0  0  0  0  0  0  0  0  0
   17.0343   -2.7648    5.4471 C   0  0  0  0  0  0  0  0  0  0  0  0
   16.1927   -3.9724    7.4311 N   0  0  0  0  0  0  0  0  0  0  0  0
   15.9897   -4.9532    8.3358 C   0  0  0  0  0  0  0  0  0  0  0  0
   16.2237   -6.3891    8.1792 C   0  0  0  0  0  0  0  0  0  0  0  0
   15.5084   -4.4174    9.4949 N   0  0  0  0  0  0  0  0  0  0  0  0
   15.4093   -3.1339    9.3296 N   0  0  0  0  0  0  0  0  0  0  0  0
   15.8186   -2.8360    8.0842 C   0  0  0  0  0  0  0  0  0  0  0  0
   15.8273   -1.4400    7.5830 C   0  0  0  0  0  0  0  0  0  0  0  0
   16.4844   -0.5328    8.6302 C   0  0  0  0  0  0  0  0  0  0  0  0
   14.3692   -1.0032    7.4833 C   0  0  0  0  0  0  0  0  0  0  0  0
  1  2  2  0
  2  3  1  0
  3  4  1  0
  4  5  1  0
  5  6  1  0
  6  7  1  0
  7  8  1  0
  6  9  1  0
  6 10  1  0
  2 11  1  0
 11 12  1  0
 12 13  1  0
 13 14  2  0
 14 15  1  0
 15 16  2  0
 16 17  1  0
 17 18  2  0
 12 19  1  1
 19 20  1  0
 21 20  1  6
 21 22  1  0
 22 23  1  1
 23 24  1  0
 25 24  1  1
 25 26  1  0
 26 27  1  0
 27 28  1  0
 27 29  1  1
 29 30  1  0
 30 31  1  0
 30 32  2  0
 32 33  1  0
 33 34  2  0
 34 35  1  0
 35 36  1  0
 35 37  1  0
  8  3  1  0
 18 13  1  0
 25 21  1  0
 34 29  1  0
 28 22  1  0
M  CHG  1  21   1
M  END
$$$$
