
     RDKit          3D

 37 41  0  0  0  0  0  0  0  0999 V2000
    4.8132   -2.3962   17.7348 O   0  0  0  0  0  0  0  0  0  0  0  0
    4.0022   -3.2015   17.1724 C   0  0  0  0  0  0  0  0  0  0  0  0
    4.3665   -4.6150   16.9019 C   0  0  0  0  0  0  0  0  0  0  0  0
    4.0066   -5.0585   15.5247 C   0  0  0  0  0  0  0  0  0  0  0  0
    5.1393   -4.8784   14.5362 C   0  0  0  0  0  0  0  0  0  0  0  0
    6.2700   -5.8006   14.9325 C   0  0  0  0  0  0  0  0  0  0  0  0
    6.4072   -5.9729   16.4091 C   0  0  0  0  0  0  0  0  0  0  0  0
    5.8652   -4.7490   17.1102 C   0  0  0  0  0  0  0  0  0  0  0  0
    6.0465   -7.0503   14.3807 F   0  0  0  0  0  0  0  0  0  0  0  0
    7.4467   -5.3124   14.4207 F   0  0  0  0  0  0  0  0  0  0  0  0
    2.7381   -2.6467   16.8293 N   0  0  0  0  0  0  0  0  0  0  0  0
    2.2561   -1.3935   17.4091 C   0  0  2  0  0  0  0  0  0  0  0  0
    0.8960   -1.6206   17.8953 C   0  0  0  0  0  0  0  0  0  0  0  0
    0.2433   -2.7304   17.3420 C   0  0  0  0  0  0  0  0  0  0  0  0
   -1.0339   -3.0900   17.6946 C   0  0  0  0  0  0  0  0  0  0  0  0
   -1.6949   -2.3257   18.6299 C   0  0  0  0  0  0  0  0  0  0  0  0
   -1.0544   -1.2350   19.1744 C   0  0  0  0  0  0  0  0  0  0  0  0
    0.2274   -0.8796   18.8164 C   0  0  0  0  0  0  0  0  0  0  0  0
    2.4588   -0.2328   16.5109 C   0  0  0  0  0  0  0  0  0  0  0  0
    2.3898   -0.4919   15.0509 C   0  0  0  0  0  0  0  0  0  0  0  0
    2.1173    0.7651   14.3799 N   0  0  2  0  0  4  0  0  0  0  0  0
    0.7187    0.9966   14.1643 C   0  0  2  0  0  0  0  0  0  0  0  0
    0.3278    0.1288   12.9666 C   0  0  0  0  0  0  0  0  0  0  0  0
    1.5910    0.1478   12.1564 C   0  0  0  0  0  0  0  0  0  0  0  0
    2.6459    0.8040   13.0385 C   0  0  1  0  0  0  0  0  0  0  0  0
    2.7118    2.2605   12.6289 C   0  0  0  0  0  0  0  0  0  0  0  0
    1.3611    2.9263   12.6941 C   0  0  1  0  0  0  0  0  0  0  0  0
    0.5030    2.4378   13.8219 C   0  0  0  0  0  0  0  0  0  0  0  0
    1.4938    4.3623   12.6311 N   0  0  0  0  0  0  0  0  0  0  0  0
    2.2367    5.1763   13.4102 C   0  0  0  0  0  0  0  0  0  0  0  0
    3.1070    4.8100   14.5281 C   0  0  0  0  0  0  0  0  0  0  0  0
    2.0740    6.4707   13.0097 N   0  0  0  0  0  0  0  0  0  0  0  0
    1.2517    6.4767   12.0056 N   0  0  0  0  0  0  0  0  0  0  0  0
    0.8834    5.2085   11.7542 C   0  0  0  0  0  0  0  0  0  0  0  0
   -0.0573    4.8765   10.6564 C   0  0  0  0  0  0  0  0  0  0  0  0
   -0.8129    3.5904   11.0121 C   0  0  0  0  0  0  0  0  0  0  0  0
    0.7956    4.5552    9.4332 C   0  0  0  0  0  0  0  0  0  0  0  0
  1  2  2  0
  2  3  1  0
  3  4  1  0
  4  5  1  0
  5  6  1  0
  6  7  1  0
  7  8  1  0
  6  9  1  0
  6 10  1  0
  2 11  1  0
 11 12  1  0
 12 13  1  0
 13 14  2  0
 14 15  1  0
 15 16  2  0
 16 17  1  0
 17 18  2  0
 12 19  1  6
 19 20  1  0
 21 20  1  6
 21 22  1  0
 22 23  1  6
 23 24  1  0
 25 24  1  6
 25 26  1  0
 26 27  1  0
 27 28  1  0
 27 29  1  1
 29 30  1  0
 30 31  1  0
 30 32  2  0
 32 33  1  0
 33 34  2  0
 34 35  1  0
 35 36  1  0
 35 37  1  0
  8  3  1  0
 18 13  1  0
 25 21  1  0
 34 29  1  0
 28 22  1  0
M  CHG  1  21   1
M  END
$$$$
