
     RDKit          3D

 37 41  0  0  0  0  0  0  0  0999 V2000
    1.5362   -5.8731   16.5936 O   0  0  0  0  0  0  0  0  0  0  0  0
    1.0043   -5.0289   17.3855 C   0  0  0  0  0  0  0  0  0  0  0  0
    0.1363   -5.4540   18.5122 C   0  0  0  0  0  0  0  0  0  0  0  0
   -0.4628   -4.3077   19.2538 C   0  0  0  0  0  0  0  0  0  0  0  0
   -1.8277   -3.9178   18.7270 C   0  0  0  0  0  0  0  0  0  0  0  0
   -2.7839   -5.0599   18.9868 C   0  0  0  0  0  0  0  0  0  0  0  0
   -2.1471   -6.4056   18.8756 C   0  0  0  0  0  0  0  0  0  0  0  0
   -0.9660   -6.3265   17.9364 C   0  0  0  0  0  0  0  0  0  0  0  0
   -3.2931   -4.9384   20.2682 F   0  0  0  0  0  0  0  0  0  0  0  0
   -3.8306   -4.9779   18.1021 F   0  0  0  0  0  0  0  0  0  0  0  0
    1.3041   -3.6663   17.1081 N   0  0  0  0  0  0  0  0  0  0  0  0
    2.3028   -3.2771   16.1132 C   0  0  2  0  0  0  0  0  0  0  0  0
    3.6247   -3.4967   16.6981 C   0  0  0  0  0  0  0  0  0  0  0  0
    3.7832   -3.0219   18.0069 C   0  0  0  0  0  0  0  0  0  0  0  0
    4.9578   -3.1539   18.7054 C   0  0  0  0  0  0  0  0  0  0  0  0
    6.0190   -3.7788   18.0898 C   0  0  0  0  0  0  0  0  0  0  0  0
    5.8644   -4.2460   16.8036 C   0  0  0  0  0  0  0  0  0  0  0  0
    4.6830   -4.1104   16.1083 C   0  0  0  0  0  0  0  0  0  0  0  0
    2.0425   -1.9378   15.5355 C   0  0  0  0  0  0  0  0  0  0  0  0
    1.6714   -1.8854   14.0991 C   0  0  0  0  0  0  0  0  0  0  0  0
    1.4870   -0.4948   13.7292 N   0  0  2  0  0  4  0  0  0  0  0  0
    0.2694   -0.2605   13.0090 C   0  0  2  0  0  0  0  0  0  0  0  0
    0.5278   -0.7367   11.5784 C   0  0  0  0  0  0  0  0  0  0  0  0
    1.9870   -0.4257   11.4168 C   0  0  0  0  0  0  0  0  0  0  0  0
    2.4880   -0.0303   12.8004 C   0  0  1  0  0  0  0  0  0  0  0  0
    2.4746    1.4831   12.8527 C   0  0  0  0  0  0  0  0  0  0  0  0
    1.1195    2.0473   12.5095 C   0  0  1  0  0  0  0  0  0  0  0  0
   -0.0229    1.2076   12.9962 C   0  0  0  0  0  0  0  0  0  0  0  0
    1.0332    3.4382   12.8854 N   0  0  0  0  0  0  0  0  0  0  0  0
    1.0178    3.9792   14.1218 C   0  0  0  0  0  0  0  0  0  0  0  0
    1.0863    3.2894   15.4105 C   0  0  0  0  0  0  0  0  0  0  0  0
    0.9253    5.3375   14.0285 N   0  0  0  0  0  0  0  0  0  0  0  0
    0.8833    5.6484   12.7692 N   0  0  0  0  0  0  0  0  0  0  0  0
    0.9473    4.5132   12.0519 C   0  0  0  0  0  0  0  0  0  0  0  0
    0.9226    4.5296   10.5688 C   0  0  0  0  0  0  0  0  0  0  0  0
   -0.2977    3.7423   10.0765 C   0  0  0  0  0  0  0  0  0  0  0  0
    2.1538    3.7587   10.1034 C   0  0  0  0  0  0  0  0  0  0  0  0
  1  2  2  0
  2  3  1  0
  3  4  1  0
  4  5  1  0
  5  6  1  0
  6  7  1  0
  7  8  1  0
  6  9  1  0
  6 10  1  0
  2 11  1  0
 11 12  1  0
 12 13  1  0
 13 14  2  0
 14 15  1  0
 15 16  2  0
 16 17  1  0
 17 18  2  0
 12 19  1  1
 19 20  1  0
 21 20  1  6
 21 22  1  0
 22 23  1  6
 23 24  1  0
 25 24  1  6
 25 26  1  0
 26 27  1  0
 27 28  1  0
 27 29  1  1
 29 30  1  0
 30 31  1  0
 30 32  2  0
 32 33  1  0
 33 34  2  0
 34 35  1  0
 35 36  1  0
 35 37  1  0
  8  3  1  0
 18 13  1  0
 25 21  1  0
 34 29  1  0
 28 22  1  0
M  CHG  1  21   1
M  END
$$$$
