
     RDKit          3D

 37 41  0  0  0  0  0  0  0  0999 V2000
   -1.2020   -6.2798  -20.4398 O   0  0  0  0  0  0  0  0  0  0  0  0
   -0.0292   -6.0110  -20.0215 C   0  0  0  0  0  0  0  0  0  0  0  0
    1.0557   -5.6011  -20.9481 C   0  0  0  0  0  0  0  0  0  0  0  0
    1.4651   -6.6858  -21.8857 C   0  0  0  0  0  0  0  0  0  0  0  0
    0.7161   -6.6376  -23.2006 C   0  0  0  0  0  0  0  0  0  0  0  0
    1.1011   -5.3665  -23.9231 C   0  0  0  0  0  0  0  0  0  0  0  0
    1.3502   -4.2140  -23.0074 C   0  0  0  0  0  0  0  0  0  0  0  0
    0.5561   -4.4021  -21.7357 C   0  0  0  0  0  0  0  0  0  0  0  0
    2.2615   -5.5916  -24.6435 F   0  0  0  0  0  0  0  0  0  0  0  0
    0.1060   -5.0359  -24.8094 F   0  0  0  0  0  0  0  0  0  0  0  0
    0.1553   -6.1331  -18.6163 N   0  0  0  0  0  0  0  0  0  0  0  0
   -0.9699   -6.2904  -17.6954 C   0  0  2  0  0  0  0  0  0  0  0  0
   -1.1979   -5.0010  -17.0450 C   0  0  0  0  0  0  0  0  0  0  0  0
   -2.4149   -4.3819  -17.3602 C   0  0  0  0  0  0  0  0  0  0  0  0
   -2.7893   -3.1719  -16.8302 C   0  0  0  0  0  0  0  0  0  0  0  0
   -1.9303   -2.5467  -15.9544 C   0  0  0  0  0  0  0  0  0  0  0  0
   -0.7341   -3.1542  -15.6437 C   0  0  0  0  0  0  0  0  0  0  0  0
   -0.3645   -4.3685  -16.1789 C   0  0  0  0  0  0  0  0  0  0  0  0
   -0.8228   -7.4685  -16.8090 C   0  0  0  0  0  0  0  0  0  0  0  0
    0.4035   -7.5339  -15.9751 C   0  0  0  0  0  0  0  0  0  0  0  0
    0.1341   -8.3960  -14.8398 N   0  0  2  0  0  4  0  0  0  0  0  0
    0.4814   -7.7980  -13.5837 C   0  0  2  0  0  0  0  0  0  0  0  0
    2.0026   -7.9126  -13.4689 C   0  0  0  0  0  0  0  0  0  0  0  0
    2.2623   -9.2027  -14.1904 C   0  0  0  0  0  0  0  0  0  0  0  0
    0.9426   -9.5904  -14.8459 C   0  0  1  0  0  0  0  0  0  0  0  0
    0.2726  -10.5854  -13.9216 C   0  0  0  0  0  0  0  0  0  0  0  0
    0.1238  -10.0439  -12.5227 C   0  0  1  0  0  0  0  0  0  0  0  0
   -0.1579   -8.5724  -12.4737 C   0  0  0  0  0  0  0  0  0  0  0  0
   -0.7983  -10.8483  -11.7571 N   0  0  0  0  0  0  0  0  0  0  0  0
   -1.9018  -11.5005  -12.1798 C   0  0  0  0  0  0  0  0  0  0  0  0
   -2.4517  -11.5615  -13.5344 C   0  0  0  0  0  0  0  0  0  0  0  0
   -2.4879  -12.1423  -11.1277 N   0  0  0  0  0  0  0  0  0  0  0  0
   -1.7764  -11.9038  -10.0689 N   0  0  0  0  0  0  0  0  0  0  0  0
   -0.7432  -11.1198  -10.4226 C   0  0  0  0  0  0  0  0  0  0  0  0
    0.2629  -10.6672   -9.4309 C   0  0  0  0  0  0  0  0  0  0  0  0
    1.6147  -10.4859  -10.1317 C   0  0  0  0  0  0  0  0  0  0  0  0
    0.4391  -11.8097   -8.4357 C   0  0  0  0  0  0  0  0  0  0  0  0
  1  2  2  0
  2  3  1  0
  3  4  1  0
  4  5  1  0
  5  6  1  0
  6  7  1  0
  7  8  1  0
  6  9  1  0
  6 10  1  0
  2 11  1  0
 11 12  1  0
 12 13  1  0
 13 14  2  0
 14 15  1  0
 15 16  2  0
 16 17  1  0
 17 18  2  0
 12 19  1  1
 19 20  1  0
 21 20  1  6
 21 22  1  0
 22 23  1  1
 23 24  1  0
 25 24  1  1
 25 26  1  0
 26 27  1  0
 27 28  1  0
 27 29  1  6
 29 30  1  0
 30 31  1  0
 30 32  2  0
 32 33  1  0
 33 34  2  0
 34 35  1  0
 35 36  1  0
 35 37  1  0
  8  3  1  0
 18 13  1  0
 25 21  1  0
 34 29  1  0
 28 22  1  0
M  CHG  1  21   1
M  END
$$$$
