
     RDKit          3D

 37 41  0  0  0  0  0  0  0  0999 V2000
    2.6462   -3.7228   16.3487 O   0  0  0  0  0  0  0  0  0  0  0  0
    3.4637   -3.5554   15.3863 C   0  0  0  0  0  0  0  0  0  0  0  0
    4.5856   -4.4962   15.1418 C   0  0  0  0  0  0  0  0  0  0  0  0
    5.8177   -4.1485   15.9061 C   0  0  0  0  0  0  0  0  0  0  0  0
    5.8966   -4.8542   17.2433 C   0  0  0  0  0  0  0  0  0  0  0  0
    6.0301   -6.3392   16.9923 C   0  0  0  0  0  0  0  0  0  0  0  0
    5.2797   -6.8090   15.7902 C   0  0  0  0  0  0  0  0  0  0  0  0
    4.1118   -5.8851   15.5342 C   0  0  0  0  0  0  0  0  0  0  0  0
    7.3665   -6.6456   16.8020 F   0  0  0  0  0  0  0  0  0  0  0  0
    5.5891   -7.0220   18.0988 F   0  0  0  0  0  0  0  0  0  0  0  0
    3.2194   -2.4118   14.5763 N   0  0  0  0  0  0  0  0  0  0  0  0
    1.9380   -1.7070   14.5928 C   0  0  2  0  0  0  0  0  0  0  0  0
    1.0819   -2.3135   13.5745 C   0  0  0  0  0  0  0  0  0  0  0  0
    1.4932   -2.1075   12.2508 C   0  0  0  0  0  0  0  0  0  0  0  0
    0.8078   -2.6150   11.1749 C   0  0  0  0  0  0  0  0  0  0  0  0
   -0.3285   -3.3554   11.4124 C   0  0  0  0  0  0  0  0  0  0  0  0
   -0.7336   -3.5587   12.7128 C   0  0  0  0  0  0  0  0  0  0  0  0
   -0.0412   -3.0468   13.7880 C   0  0  0  0  0  0  0  0  0  0  0  0
    2.0946   -0.2346   14.5425 C   0  0  0  0  0  0  0  0  0  0  0  0
    0.8571    0.5777   14.6538 C   0  0  0  0  0  0  0  0  0  0  0  0
    1.2195    1.9762   14.5210 N   0  0  2  0  0  4  0  0  0  0  0  0
    1.6356    2.5699   15.7582 C   0  0  2  0  0  0  0  0  0  0  0  0
    0.3530    2.8477   16.5444 C   0  0  0  0  0  0  0  0  0  0  0  0
   -0.6163    3.1537   15.4402 C   0  0  0  0  0  0  0  0  0  0  0  0
    0.1019    2.8055   14.1423 C   0  0  1  0  0  0  0  0  0  0  0  0
    0.6722    4.0990   13.5992 C   0  0  0  0  0  0  0  0  0  0  0  0
    1.5434    4.7996   14.6102 C   0  0  1  0  0  0  0  0  0  0  0  0
    2.3325    3.8642   15.4758 C   0  0  0  0  0  0  0  0  0  0  0  0
    2.3333    5.8301   13.9797 N   0  0  0  0  0  0  0  0  0  0  0  0
    2.5362    7.1027   14.3811 C   0  0  0  0  0  0  0  0  0  0  0  0
    2.0042    7.7708   15.5692 C   0  0  0  0  0  0  0  0  0  0  0  0
    3.3513    7.7409   13.4920 N   0  0  0  0  0  0  0  0  0  0  0  0
    3.6562    6.8972   12.5541 N   0  0  0  0  0  0  0  0  0  0  0  0
    3.0510    5.7278   12.8255 C   0  0  0  0  0  0  0  0  0  0  0  0
    3.2035    4.5502   11.9365 C   0  0  0  0  0  0  0  0  0  0  0  0
    4.5787    3.9147   12.1737 C   0  0  0  0  0  0  0  0  0  0  0  0
    3.2109    5.0811   10.5065 C   0  0  0  0  0  0  0  0  0  0  0  0
  1  2  2  0
  2  3  1  0
  3  4  1  0
  4  5  1  0
  5  6  1  0
  6  7  1  0
  7  8  1  0
  6  9  1  0
  6 10  1  0
  2 11  1  0
 11 12  1  0
 12 13  1  0
 13 14  2  0
 14 15  1  0
 15 16  2  0
 16 17  1  0
 17 18  2  0
 12 19  1  6
 19 20  1  0
 21 20  1  1
 21 22  1  0
 22 23  1  1
 23 24  1  0
 25 24  1  1
 25 26  1  0
 26 27  1  0
 27 28  1  0
 27 29  1  6
 29 30  1  0
 30 31  1  0
 30 32  2  0
 32 33  1  0
 33 34  2  0
 34 35  1  0
 35 36  1  0
 35 37  1  0
  8  3  1  0
 18 13  1  0
 25 21  1  0
 34 29  1  0
 28 22  1  0
M  CHG  1  21   1
M  END
$$$$
