
     RDKit          3D

 37 41  0  0  0  0  0  0  0  0999 V2000
    2.5998   -2.8296   18.8208 O   0  0  0  0  0  0  0  0  0  0  0  0
    2.2999   -3.4038   17.7240 C   0  0  0  0  0  0  0  0  0  0  0  0
    2.4376   -4.8713   17.5474 C   0  0  0  0  0  0  0  0  0  0  0  0
    3.8101   -5.2848   17.1370 C   0  0  0  0  0  0  0  0  0  0  0  0
    4.6941   -5.6336   18.3156 C   0  0  0  0  0  0  0  0  0  0  0  0
    4.1288   -6.8636   18.9890 C   0  0  0  0  0  0  0  0  0  0  0  0
    2.6375   -6.9274   18.9559 C   0  0  0  0  0  0  0  0  0  0  0  0
    2.0767   -5.5270   18.8693 C   0  0  0  0  0  0  0  0  0  0  0  0
    4.6138   -7.9909   18.3486 F   0  0  0  0  0  0  0  0  0  0  0  0
    4.5562   -6.8967   20.2934 F   0  0  0  0  0  0  0  0  0  0  0  0
    1.8295   -2.5393   16.6969 N   0  0  0  0  0  0  0  0  0  0  0  0
    1.2971   -1.2079   16.9847 C   0  0  2  0  0  0  0  0  0  0  0  0
   -0.1572   -1.2694   16.8469 C   0  0  0  0  0  0  0  0  0  0  0  0
   -0.6783   -2.5460   16.5973 C   0  0  0  0  0  0  0  0  0  0  0  0
   -2.0229   -2.7811   16.4496 C   0  0  0  0  0  0  0  0  0  0  0  0
   -2.8891   -1.7157   16.5519 C   0  0  0  0  0  0  0  0  0  0  0  0
   -2.3781   -0.4606   16.7974 C   0  0  0  0  0  0  0  0  0  0  0  0
   -1.0278   -0.2316   16.9447 C   0  0  0  0  0  0  0  0  0  0  0  0
    1.9943   -0.1385   16.2328 C   0  0  0  0  0  0  0  0  0  0  0  0
    2.2526   -0.3877   14.7924 C   0  0  0  0  0  0  0  0  0  0  0  0
    2.2110    0.8852   14.0977 N   0  0  2  0  0  4  0  0  0  0  0  0
    0.9473    1.1438   13.4714 C   0  0  2  0  0  0  0  0  0  0  0  0
    0.9310    0.3036   12.1930 C   0  0  0  0  0  0  0  0  0  0  0  0
    2.3812    0.3155   11.8068 C   0  0  0  0  0  0  0  0  0  0  0  0
    3.1239    0.9386   12.9823 C   0  0  1  0  0  0  0  0  0  0  0  0
    3.3270    2.4007   12.6440 C   0  0  0  0  0  0  0  0  0  0  0  0
    2.0278    3.0878   12.3089 C   0  0  1  0  0  0  0  0  0  0  0  0
    0.8616    2.5941   13.1109 C   0  0  0  0  0  0  0  0  0  0  0  0
    2.1887    4.5222   12.3206 N   0  0  0  0  0  0  0  0  0  0  0  0
    2.7155    5.3047   13.2858 C   0  0  0  0  0  0  0  0  0  0  0  0
    3.2647    4.8974   14.5794 C   0  0  0  0  0  0  0  0  0  0  0  0
    2.6761    6.6106   12.8916 N   0  0  0  0  0  0  0  0  0  0  0  0
    2.1398    6.6544   11.7106 N   0  0  0  0  0  0  0  0  0  0  0  0
    1.8341    5.3990   11.3392 C   0  0  0  0  0  0  0  0  0  0  0  0
    1.2037    5.1091   10.0282 C   0  0  0  0  0  0  0  0  0  0  0  0
    2.0671    5.7068    8.9108 C   0  0  0  0  0  0  0  0  0  0  0  0
   -0.1213    5.8644   10.0046 C   0  0  0  0  0  0  0  0  0  0  0  0
  1  2  2  0
  2  3  1  0
  3  4  1  0
  4  5  1  0
  5  6  1  0
  6  7  1  0
  7  8  1  0
  6  9  1  0
  6 10  1  0
  2 11  1  0
 11 12  1  0
 12 13  1  0
 13 14  2  0
 14 15  1  0
 15 16  2  0
 16 17  1  0
 17 18  2  0
 12 19  1  6
 19 20  1  0
 21 20  1  6
 21 22  1  0
 22 23  1  6
 23 24  1  0
 25 24  1  6
 25 26  1  0
 26 27  1  0
 27 28  1  0
 27 29  1  1
 29 30  1  0
 30 31  1  0
 30 32  2  0
 32 33  1  0
 33 34  2  0
 34 35  1  0
 35 36  1  0
 35 37  1  0
  8  3  1  0
 18 13  1  0
 25 21  1  0
 34 29  1  0
 28 22  1  0
M  CHG  1  21   1
M  END
$$$$
