
     RDKit          3D

 37 41  0  0  0  0  0  0  0  0999 V2000
    2.5837   -4.9512   16.6706 O   0  0  0  0  0  0  0  0  0  0  0  0
    3.4758   -4.0547   16.8220 C   0  0  0  0  0  0  0  0  0  0  0  0
    4.7383   -4.3249   17.5546 C   0  0  0  0  0  0  0  0  0  0  0  0
    4.5570   -4.3752   19.0337 C   0  0  0  0  0  0  0  0  0  0  0  0
    4.2975   -5.7765   19.5450 C   0  0  0  0  0  0  0  0  0  0  0  0
    5.5345   -6.6108   19.3007 C   0  0  0  0  0  0  0  0  0  0  0  0
    6.2566   -6.2500   18.0447 C   0  0  0  0  0  0  0  0  0  0  0  0
    5.2803   -5.6541   17.0574 C   0  0  0  0  0  0  0  0  0  0  0  0
    6.4118   -6.4358   20.3570 F   0  0  0  0  0  0  0  0  0  0  0  0
    5.1794   -7.9363   19.2559 F   0  0  0  0  0  0  0  0  0  0  0  0
    3.1703   -2.7924   16.2417 N   0  0  0  0  0  0  0  0  0  0  0  0
    2.0589   -2.6148   15.3077 C   0  0  2  0  0  0  0  0  0  0  0  0
    2.5462   -2.9377   13.9675 C   0  0  0  0  0  0  0  0  0  0  0  0
    3.7428   -2.3073   13.6009 C   0  0  0  0  0  0  0  0  0  0  0  0
    4.3415   -2.5066   12.3816 C   0  0  0  0  0  0  0  0  0  0  0  0
    3.7371   -3.3615   11.4873 C   0  0  0  0  0  0  0  0  0  0  0  0
    2.5612   -3.9818   11.8465 C   0  0  0  0  0  0  0  0  0  0  0  0
    1.9658   -3.7775   13.0718 C   0  0  0  0  0  0  0  0  0  0  0  0
    1.3758   -1.3106   15.4733 C   0  0  0  0  0  0  0  0  0  0  0  0
    0.5955   -0.8081   14.3148 C   0  0  0  0  0  0  0  0  0  0  0  0
    0.8705    0.6083   14.1633 N   0  0  2  0  0  4  0  0  0  0  0  0
   -0.1038    1.4427   14.8042 C   0  0  2  0  0  0  0  0  0  0  0  0
   -1.3228    1.4530   13.8799 C   0  0  0  0  0  0  0  0  0  0  0  0
   -0.6775    1.3408   12.5296 C   0  0  0  0  0  0  0  0  0  0  0  0
    0.7942    1.0446   12.7907 C   0  0  1  0  0  0  0  0  0  0  0  0
    1.5271    2.3670   12.7034 C   0  0  0  0  0  0  0  0  0  0  0  0
    0.9384    3.4003   13.6296 C   0  0  1  0  0  0  0  0  0  0  0  0
    0.4378    2.8331   14.9237 C   0  0  0  0  0  0  0  0  0  0  0  0
    1.8347    4.5213   13.7828 N   0  0  0  0  0  0  0  0  0  0  0  0
    2.3777    5.0196   14.9134 C   0  0  0  0  0  0  0  0  0  0  0  0
    2.1972    4.5474   16.2866 C   0  0  0  0  0  0  0  0  0  0  0  0
    3.1705    6.0884   14.6107 N   0  0  0  0  0  0  0  0  0  0  0  0
    3.1310    6.2623   13.3252 N   0  0  0  0  0  0  0  0  0  0  0  0
    2.3266    5.3237   12.7968 C   0  0  0  0  0  0  0  0  0  0  0  0
    2.0726    5.2511   11.3372 C   0  0  0  0  0  0  0  0  0  0  0  0
    2.8891    6.3388   10.6291 C   0  0  0  0  0  0  0  0  0  0  0  0
    0.6038    5.6073   11.1317 C   0  0  0  0  0  0  0  0  0  0  0  0
  1  2  2  0
  2  3  1  0
  3  4  1  0
  4  5  1  0
  5  6  1  0
  6  7  1  0
  7  8  1  0
  6  9  1  0
  6 10  1  0
  2 11  1  0
 11 12  1  0
 12 13  1  0
 13 14  2  0
 14 15  1  0
 15 16  2  0
 16 17  1  0
 17 18  2  0
 12 19  1  6
 19 20  1  0
 21 20  1  6
 21 22  1  0
 22 23  1  6
 23 24  1  0
 25 24  1  1
 25 26  1  0
 26 27  1  0
 27 28  1  0
 27 29  1  1
 29 30  1  0
 30 31  1  0
 30 32  2  0
 32 33  1  0
 33 34  2  0
 34 35  1  0
 35 36  1  0
 35 37  1  0
  8  3  1  0
 18 13  1  0
 25 21  1  0
 34 29  1  0
 28 22  1  0
M  CHG  1  21   1
M  END
$$$$
