
     RDKit          3D

 37 41  0  0  0  0  0  0  0  0999 V2000
    0.8044   -1.7885   19.9568 O   0  0  0  0  0  0  0  0  0  0  0  0
    1.4092   -2.5441   19.1286 C   0  0  0  0  0  0  0  0  0  0  0  0
    2.5248   -3.4287   19.5490 C   0  0  0  0  0  0  0  0  0  0  0  0
    2.1363   -4.3919   20.6188 C   0  0  0  0  0  0  0  0  0  0  0  0
    1.6699   -5.7229   20.0680 C   0  0  0  0  0  0  0  0  0  0  0  0
    2.8393   -6.3920   19.3820 C   0  0  0  0  0  0  0  0  0  0  0  0
    3.7608   -5.4317   18.7053 C   0  0  0  0  0  0  0  0  0  0  0  0
    2.9949   -4.1875   18.3198 C   0  0  0  0  0  0  0  0  0  0  0  0
    3.5749   -7.0902   20.3241 F   0  0  0  0  0  0  0  0  0  0  0  0
    2.3633   -7.2913   18.4601 F   0  0  0  0  0  0  0  0  0  0  0  0
    0.9374   -2.4737   17.7885 N   0  0  0  0  0  0  0  0  0  0  0  0
   -0.0709   -1.5007   17.3696 C   0  0  2  0  0  0  0  0  0  0  0  0
   -1.2263   -2.2430   16.8680 C   0  0  0  0  0  0  0  0  0  0  0  0
   -0.9262   -3.2778   15.9720 C   0  0  0  0  0  0  0  0  0  0  0  0
   -1.8926   -4.0775   15.4137 C   0  0  0  0  0  0  0  0  0  0  0  0
   -3.2075   -3.8486   15.7516 C   0  0  0  0  0  0  0  0  0  0  0  0
   -3.5037   -2.8321   16.6323 C   0  0  0  0  0  0  0  0  0  0  0  0
   -2.5293   -2.0334   17.1890 C   0  0  0  0  0  0  0  0  0  0  0  0
    0.4824   -0.4491   16.4845 C   0  0  0  0  0  0  0  0  0  0  0  0
   -0.2359   -0.1958   15.2104 C   0  0  0  0  0  0  0  0  0  0  0  0
    0.5368    0.7572   14.4363 N   0  0  2  0  0  4  0  0  0  0  0  0
    0.2296    2.1214   14.7540 C   0  0  2  0  0  0  0  0  0  0  0  0
   -1.0923    2.4307   14.0488 C   0  0  0  0  0  0  0  0  0  0  0  0
   -0.9838    1.5778   12.8187 C   0  0  0  0  0  0  0  0  0  0  0  0
    0.2413    0.6958   13.0259 C   0  0  1  0  0  0  0  0  0  0  0  0
    1.3893    1.3674   12.3017 C   0  0  0  0  0  0  0  0  0  0  0  0
    1.5811    2.7939   12.7493 C   0  0  1  0  0  0  0  0  0  0  0  0
    1.3020    3.0103   14.2061 C   0  0  0  0  0  0  0  0  0  0  0  0
    2.8590    3.3016   12.3102 N   0  0  0  0  0  0  0  0  0  0  0  0
    4.0958    2.8727   12.6389 C   0  0  0  0  0  0  0  0  0  0  0  0
    4.4630    1.7730   13.5317 C   0  0  0  0  0  0  0  0  0  0  0  0
    5.0313    3.6332   11.9996 N   0  0  0  0  0  0  0  0  0  0  0  0
    4.4054    4.5185   11.2862 N   0  0  0  0  0  0  0  0  0  0  0  0
    3.0838    4.3398   11.4562 C   0  0  0  0  0  0  0  0  0  0  0  0
    2.0895    5.1994   10.7687 C   0  0  0  0  0  0  0  0  0  0  0  0
    2.1392    4.9209    9.2616 C   0  0  0  0  0  0  0  0  0  0  0  0
    2.5521    6.6402   10.9599 C   0  0  0  0  0  0  0  0  0  0  0  0
  1  2  2  0
  2  3  1  0
  3  4  1  0
  4  5  1  0
  5  6  1  0
  6  7  1  0
  7  8  1  0
  6  9  1  0
  6 10  1  0
  2 11  1  0
 11 12  1  0
 12 13  1  0
 13 14  2  0
 14 15  1  0
 15 16  2  0
 16 17  1  0
 17 18  2  0
 12 19  1  6
 19 20  1  0
 21 20  1  1
 21 22  1  0
 22 23  1  6
 23 24  1  0
 25 24  1  1
 25 26  1  0
 26 27  1  0
 27 28  1  0
 27 29  1  1
 29 30  1  0
 30 31  1  0
 30 32  2  0
 32 33  1  0
 33 34  2  0
 34 35  1  0
 35 36  1  0
 35 37  1  0
  8  3  1  0
 18 13  1  0
 25 21  1  0
 34 29  1  0
 28 22  1  0
M  CHG  1  21   1
M  END
$$$$
