
     RDKit          3D

 37 41  0  0  0  0  0  0  0  0999 V2000
   -1.9128   -3.1098   17.9335 O   0  0  0  0  0  0  0  0  0  0  0  0
   -0.8725   -3.8447   17.9156 C   0  0  0  0  0  0  0  0  0  0  0  0
   -0.5539   -4.7748   19.0279 C   0  0  0  0  0  0  0  0  0  0  0  0
   -1.4378   -4.5920   20.2146 C   0  0  0  0  0  0  0  0  0  0  0  0
   -2.6507   -5.4978   20.1871 C   0  0  0  0  0  0  0  0  0  0  0  0
   -2.1798   -6.9301   20.3003 C   0  0  0  0  0  0  0  0  0  0  0  0
   -0.8749   -7.1826   19.6202 C   0  0  0  0  0  0  0  0  0  0  0  0
   -0.6947   -6.1904   18.4949 C   0  0  0  0  0  0  0  0  0  0  0  0
   -2.0270   -7.2496   21.6385 F   0  0  0  0  0  0  0  0  0  0  0  0
   -3.1367   -7.7596   19.7701 F   0  0  0  0  0  0  0  0  0  0  0  0
   -0.0522   -3.7050   16.7619 N   0  0  0  0  0  0  0  0  0  0  0  0
   -0.3567   -2.7425   15.7036 C   0  0  2  0  0  0  0  0  0  0  0  0
   -0.8617   -3.4895   14.5527 C   0  0  0  0  0  0  0  0  0  0  0  0
   -0.0636   -4.5667   14.1450 C   0  0  0  0  0  0  0  0  0  0  0  0
   -0.3963   -5.3761   13.0871 C   0  0  0  0  0  0  0  0  0  0  0  0
   -1.5622   -5.1139   12.4033 C   0  0  0  0  0  0  0  0  0  0  0  0
   -2.3475   -4.0556   12.8031 C   0  0  0  0  0  0  0  0  0  0  0  0
   -2.0080   -3.2473   13.8656 C   0  0  0  0  0  0  0  0  0  0  0  0
    0.7577   -1.7994   15.4506 C   0  0  0  0  0  0  0  0  0  0  0  0
    0.9600   -1.3582   14.0477 C   0  0  0  0  0  0  0  0  0  0  0  0
    1.6351   -0.0743   14.0694 N   0  0  2  0  0  4  0  0  0  0  0  0
    0.7303    1.0368   14.1228 C   0  0  2  0  0  0  0  0  0  0  0  0
    0.1867    1.2059   12.7028 C   0  0  0  0  0  0  0  0  0  0  0  0
    1.3634    0.7749   11.8770 C   0  0  0  0  0  0  0  0  0  0  0  0
    2.3710    0.1862   12.8566 C   0  0  1  0  0  0  0  0  0  0  0  0
    3.3677    1.2829   13.1684 C   0  0  0  0  0  0  0  0  0  0  0  0
    2.6915    2.5346   13.6664 C   0  0  1  0  0  0  0  0  0  0  0  0
    1.4837    2.2698   14.5138 C   0  0  0  0  0  0  0  0  0  0  0  0
    3.6503    3.4309   14.2671 N   0  0  0  0  0  0  0  0  0  0  0  0
    3.7498    4.7706   14.1378 C   0  0  0  0  0  0  0  0  0  0  0  0
    2.9038    5.6674   13.3497 C   0  0  0  0  0  0  0  0  0  0  0  0
    4.8019    5.2272   14.8773 N   0  0  0  0  0  0  0  0  0  0  0  0
    5.3533    4.2062   15.4586 N   0  0  0  0  0  0  0  0  0  0  0  0
    4.6735    3.1015   15.1053 C   0  0  0  0  0  0  0  0  0  0  0  0
    5.0570    1.7599   15.6084 C   0  0  0  0  0  0  0  0  0  0  0  0
    5.0526    0.7643   14.4421 C   0  0  0  0  0  0  0  0  0  0  0  0
    3.9504    1.3183   16.5608 C   0  0  0  0  0  0  0  0  0  0  0  0
  1  2  2  0
  2  3  1  0
  3  4  1  0
  4  5  1  0
  5  6  1  0
  6  7  1  0
  7  8  1  0
  6  9  1  0
  6 10  1  0
  2 11  1  0
 11 12  1  0
 12 13  1  0
 13 14  2  0
 14 15  1  0
 15 16  2  0
 16 17  1  0
 17 18  2  0
 12 19  1  6
 19 20  1  0
 21 20  1  6
 21 22  1  0
 22 23  1  6
 23 24  1  0
 25 24  1  6
 25 26  1  0
 26 27  1  0
 27 28  1  0
 27 29  1  1
 29 30  1  0
 30 31  1  0
 30 32  2  0
 32 33  1  0
 33 34  2  0
 34 35  1  0
 35 36  1  0
 35 37  1  0
  8  3  1  0
 18 13  1  0
 25 21  1  0
 34 29  1  0
 28 22  1  0
M  CHG  1  21   1
M  END
$$$$
