
     RDKit          3D

 37 41  0  0  0  0  0  0  0  0999 V2000
    0.8147    1.9902    6.4692 O   0  0  0  0  0  0  0  0  0  0  0  0
    0.0399    2.8748    6.9587 C   0  0  0  0  0  0  0  0  0  0  0  0
   -0.5915    3.9162    6.1099 C   0  0  0  0  0  0  0  0  0  0  0  0
    0.3781    4.6057    5.2114 C   0  0  0  0  0  0  0  0  0  0  0  0
    0.4736    3.9590    3.8457 C   0  0  0  0  0  0  0  0  0  0  0  0
   -0.8555    4.1259    3.1445 C   0  0  0  0  0  0  0  0  0  0  0  0
   -2.0269    4.0668    4.0682 C   0  0  0  0  0  0  0  0  0  0  0  0
   -1.6692    3.2390    5.2807 C   0  0  0  0  0  0  0  0  0  0  0  0
   -0.8792    5.3564    2.5109 F   0  0  0  0  0  0  0  0  0  0  0  0
   -0.9824    3.1503    2.1867 F   0  0  0  0  0  0  0  0  0  0  0  0
   -0.1690    2.7866    8.3630 N   0  0  0  0  0  0  0  0  0  0  0  0
    0.1590    1.5812    9.1235 C   0  0  2  0  0  0  0  0  0  0  0  0
   -0.8935    0.5970    8.8758 C   0  0  0  0  0  0  0  0  0  0  0  0
   -0.4715   -0.7393    8.8766 C   0  0  0  0  0  0  0  0  0  0  0  0
   -1.3329   -1.7879    8.6684 C   0  0  0  0  0  0  0  0  0  0  0  0
   -2.6635   -1.5091    8.4505 C   0  0  0  0  0  0  0  0  0  0  0  0
   -3.0794   -0.1962    8.4496 C   0  0  0  0  0  0  0  0  0  0  0  0
   -2.2099    0.8514    8.6594 C   0  0  0  0  0  0  0  0  0  0  0  0
    0.4835    1.8694   10.5401 C   0  0  0  0  0  0  0  0  0  0  0  0
    1.9197    1.8659   10.9154 C   0  0  0  0  0  0  0  0  0  0  0  0
    2.0384    2.4009   12.2586 N   0  0  2  0  0  4  0  0  0  0  0  0
    3.2114    3.2048   12.4429 C   0  0  2  0  0  0  0  0  0  0  0  0
    4.3748    2.2233   12.5965 C   0  0  0  0  0  0  0  0  0  0  0  0
    3.7053    1.0681   13.2818 C   0  0  0  0  0  0  0  0  0  0  0  0
    2.2122    1.3706   13.2529 C   0  0  1  0  0  0  0  0  0  0  0  0
    1.8656    1.9836   14.5935 C   0  0  0  0  0  0  0  0  0  0  0  0
    2.7255    3.1819   14.9049 C   0  0  1  0  0  0  0  0  0  0  0  0
    3.0702    4.0047   13.7003 C   0  0  0  0  0  0  0  0  0  0  0  0
    2.1701    3.9407   16.0001 N   0  0  0  0  0  0  0  0  0  0  0  0
    0.8740    4.1864   16.2852 C   0  0  0  0  0  0  0  0  0  0  0  0
   -0.3121    3.7423   15.5523 C   0  0  0  0  0  0  0  0  0  0  0  0
    0.7879    4.9486   17.4139 N   0  0  0  0  0  0  0  0  0  0  0  0
    1.9947    5.1793   17.8320 N   0  0  0  0  0  0  0  0  0  0  0  0
    2.8546    4.5783   16.9913 C   0  0  0  0  0  0  0  0  0  0  0  0
    4.3217    4.6536   17.1968 C   0  0  0  0  0  0  0  0  0  0  0  0
    4.6970    6.0750   17.6329 C   0  0  0  0  0  0  0  0  0  0  0  0
    4.9653    4.4338   15.8315 C   0  0  0  0  0  0  0  0  0  0  0  0
  1  2  2  0
  2  3  1  0
  3  4  1  0
  4  5  1  0
  5  6  1  0
  6  7  1  0
  7  8  1  0
  6  9  1  0
  6 10  1  0
  2 11  1  0
 11 12  1  0
 12 13  1  0
 13 14  2  0
 14 15  1  0
 15 16  2  0
 16 17  1  0
 17 18  2  0
 12 19  1  1
 19 20  1  0
 21 20  1  6
 21 22  1  0
 22 23  1  1
 23 24  1  0
 25 24  1  1
 25 26  1  0
 26 27  1  0
 27 28  1  0
 27 29  1  1
 29 30  1  0
 30 31  1  0
 30 32  2  0
 32 33  1  0
 33 34  2  0
 34 35  1  0
 35 36  1  0
 35 37  1  0
  8  3  1  0
 18 13  1  0
 25 21  1  0
 34 29  1  0
 28 22  1  0
M  CHG  1  21   1
M  END
$$$$
