
     RDKit          3D

 27 29  0  0  0  0  0  0  0  0999 V2000
   -4.5692    3.8440    9.3082 O   0  0  0  0  0  0  0  0  0  0  0  0
   -3.7905    3.4028    8.4240 C   0  0  0  0  0  0  0  0  0  0  0  0
   -3.2261    2.0336    8.4547 C   0  0  0  0  0  0  0  0  0  0  0  0
   -1.8659    2.1086    8.1350 O   0  0  0  0  0  0  0  0  0  0  0  0
   -1.4070    2.8519    7.0628 C   0  0  0  0  0  0  0  0  0  0  0  0
   -2.1987    3.9293    6.6625 C   0  0  0  0  0  0  0  0  0  0  0  0
   -3.4206    4.2372    7.3364 N   0  0  0  0  0  0  0  0  0  0  0  0
   -1.7777    4.6949    5.6005 C   0  0  0  0  0  0  0  0  0  0  0  0
   -2.5663    5.7560    5.2138 O   0  0  0  0  0  0  0  0  0  0  0  0
   -0.6050    4.3951    4.9586 C   0  0  0  0  0  0  0  0  0  0  0  0
    0.1749    3.3383    5.3483 C   0  0  0  0  0  0  0  0  0  0  0  0
   -0.2223    2.5475    6.4154 C   0  0  0  0  0  0  0  0  0  0  0  0
    0.5526    1.3953    6.8916 C   0  0  2  0  0  0  0  0  0  0  0  0
    1.7837    1.7483    7.6801 C   0  0  0  0  0  0  0  0  0  0  0  0
    2.0835    0.8329    8.7277 N   0  0  0  0  0  4  0  0  0  0  0  0
    3.2380    1.2433    9.5443 C   0  0  0  0  0  0  0  0  0  0  0  0
    3.6170    0.1996   10.5213 C   0  0  0  0  0  0  0  0  0  0  0  0
    5.0468   -0.0912   10.6817 C   0  0  0  0  0  0  0  0  0  0  0  0
    5.6646   -0.8995    9.7153 C   0  0  0  0  0  0  0  0  0  0  0  0
    7.0031   -1.2060    9.7379 C   0  0  0  0  0  0  0  0  0  0  0  0
    7.8026   -0.7108   10.7449 C   0  0  0  0  0  0  0  0  0  0  0  0
    7.2290    0.0795   11.7025 C   0  0  0  0  0  0  0  0  0  0  0  0
    5.8657    0.3809   11.6649 C   0  0  0  0  0  0  0  0  0  0  0  0
    5.3472    1.2023   12.7760 C   0  0  0  0  0  0  0  0  0  0  0  0
    2.8436    2.5299   10.2067 C   0  0  0  0  0  0  0  0  0  0  0  0
    4.4252    1.5317    8.6207 C   0  0  0  0  0  0  0  0  0  0  0  0
    0.8471    0.6099    5.7783 O   0  0  0  0  0  0  0  0  0  0  0  0
  1  2  2  0
  2  3  1  0
  3  4  1  0
  4  5  1  0
  5  6  2  0
  6  7  1  0
  6  8  1  0
  8  9  1  0
  8 10  2  0
 10 11  1  0
 11 12  2  0
 12 13  1  0
 13 14  1  0
 14 15  1  0
 15 16  1  0
 16 17  1  0
 17 18  1  0
 18 19  2  0
 19 20  1  0
 20 21  2  0
 21 22  1  0
 22 23  2  0
 23 24  1  0
 16 25  1  0
 16 26  1  0
 13 27  1  6
  7  2  1  0
 23 18  1  0
 12  5  1  0
M  CHG  1  15   1
M  END
$$$$
