
     RDKit          3D

 27 29  0  0  0  0  0  0  0  0999 V2000
   -3.6336    4.5865   10.3338 O   0  0  0  0  0  0  0  0  0  0  0  0
   -2.9560    3.9698    9.4716 C   0  0  0  0  0  0  0  0  0  0  0  0
   -1.6813    3.2836    9.7854 C   0  0  0  0  0  0  0  0  0  0  0  0
   -0.7577    3.5842    8.7781 O   0  0  0  0  0  0  0  0  0  0  0  0
   -1.0885    3.5104    7.4373 C   0  0  0  0  0  0  0  0  0  0  0  0
   -2.4356    3.6787    7.1140 C   0  0  0  0  0  0  0  0  0  0  0  0
   -3.4137    3.9149    8.1287 N   0  0  0  0  0  0  0  0  0  0  0  0
   -2.8068    3.6133    5.7915 C   0  0  0  0  0  0  0  0  0  0  0  0
   -4.1388    3.7811    5.4833 O   0  0  0  0  0  0  0  0  0  0  0  0
   -1.8644    3.3871    4.8230 C   0  0  0  0  0  0  0  0  0  0  0  0
   -0.5412    3.2212    5.1362 C   0  0  0  0  0  0  0  0  0  0  0  0
   -0.1353    3.2815    6.4604 C   0  0  0  0  0  0  0  0  0  0  0  0
    1.2609    3.1092    6.8797 C   0  0  2  0  0  0  0  0  0  0  0  0
    1.6041    1.7296    7.3704 C   0  0  0  0  0  0  0  0  0  0  0  0
    2.9567    1.5825    7.7878 N   0  0  0  0  0  4  0  0  0  0  0  0
    3.2792    0.2192    8.2409 C   0  0  0  0  0  0  0  0  0  0  0  0
    2.3365   -0.2507    9.2793 C   0  0  0  0  0  0  0  0  0  0  0  0
    2.5456    0.2282   10.6510 C   0  0  0  0  0  0  0  0  0  0  0  0
    2.1140    1.5256   10.9662 C   0  0  0  0  0  0  0  0  0  0  0  0
    2.2193    2.0665   12.2242 C   0  0  0  0  0  0  0  0  0  0  0  0
    2.7706    1.3239   13.2455 C   0  0  0  0  0  0  0  0  0  0  0  0
    3.2017    0.0556   12.9690 C   0  0  0  0  0  0  0  0  0  0  0  0
    3.0876   -0.4790   11.6837 C   0  0  0  0  0  0  0  0  0  0  0  0
    3.6298   -1.8379   11.4907 C   0  0  0  0  0  0  0  0  0  0  0  0
    4.6947    0.2679    8.7344 C   0  0  0  0  0  0  0  0  0  0  0  0
    3.2294   -0.7307    7.0405 C   0  0  0  0  0  0  0  0  0  0  0  0
    1.5271    4.0895    7.8342 O   0  0  0  0  0  0  0  0  0  0  0  0
  1  2  2  0
  2  3  1  0
  3  4  1  0
  4  5  1  0
  5  6  2  0
  6  7  1  0
  6  8  1  0
  8  9  1  0
  8 10  2  0
 10 11  1  0
 11 12  2  0
 12 13  1  0
 13 14  1  0
 14 15  1  0
 15 16  1  0
 16 17  1  0
 17 18  1  0
 18 19  2  0
 19 20  1  0
 20 21  2  0
 21 22  1  0
 22 23  2  0
 23 24  1  0
 16 25  1  0
 16 26  1  0
 13 27  1  1
  7  2  1  0
 23 18  1  0
 12  5  1  0
M  CHG  1  15   1
M  END
$$$$
