
     RDKit          3D

 27 29  0  0  0  0  0  0  0  0999 V2000
   -4.5993    4.6960    9.5162 O   0  0  0  0  0  0  0  0  0  0  0  0
   -3.6678    4.0549    8.9649 C   0  0  0  0  0  0  0  0  0  0  0  0
   -2.4233    3.6706    9.6706 C   0  0  0  0  0  0  0  0  0  0  0  0
   -1.3379    3.9317    8.8271 O   0  0  0  0  0  0  0  0  0  0  0  0
   -1.3375    3.5512    7.4974 C   0  0  0  0  0  0  0  0  0  0  0  0
   -2.5835    3.4204    6.8826 C   0  0  0  0  0  0  0  0  0  0  0  0
   -3.7916    3.6704    7.6037 N   0  0  0  0  0  0  0  0  0  0  0  0
   -2.6274    3.0445    5.5606 C   0  0  0  0  0  0  0  0  0  0  0  0
   -3.8622    2.9186    4.9633 O   0  0  0  0  0  0  0  0  0  0  0  0
   -1.4656    2.8067    4.8742 C   0  0  0  0  0  0  0  0  0  0  0  0
   -0.2406    2.9338    5.4741 C   0  0  0  0  0  0  0  0  0  0  0  0
   -0.1630    3.3111    6.8058 C   0  0  0  0  0  0  0  0  0  0  0  0
    1.1086    3.4645    7.5229 C   0  0  2  0  0  0  0  0  0  0  0  0
    1.7260    2.1754    7.9906 C   0  0  0  0  0  0  0  0  0  0  0  0
    2.9471    2.3420    8.7023 N   0  0  0  0  0  4  0  0  0  0  0  0
    3.6374    1.0706    8.9761 C   0  0  0  0  0  0  0  0  0  0  0  0
    2.8251    0.1792    9.8325 C   0  0  0  0  0  0  0  0  0  0  0  0
    3.4748   -0.4031   11.0129 C   0  0  0  0  0  0  0  0  0  0  0  0
    3.1213    0.1026   12.2731 C   0  0  0  0  0  0  0  0  0  0  0  0
    3.6316   -0.3899   13.4492 C   0  0  0  0  0  0  0  0  0  0  0  0
    4.5354   -1.4295   13.4221 C   0  0  0  0  0  0  0  0  0  0  0  0
    4.9005   -1.9432   12.2082 C   0  0  0  0  0  0  0  0  0  0  0  0
    4.3723   -1.4301   11.0214 C   0  0  0  0  0  0  0  0  0  0  0  0
    4.8745   -2.0295    9.7697 C   0  0  0  0  0  0  0  0  0  0  0  0
    4.9465    1.4353    9.6108 C   0  0  0  0  0  0  0  0  0  0  0  0
    3.9352    0.3683    7.6481 C   0  0  0  0  0  0  0  0  0  0  0  0
    0.8832    4.3526    8.5734 O   0  0  0  0  0  0  0  0  0  0  0  0
  1  2  2  0
  2  3  1  0
  3  4  1  0
  4  5  1  0
  5  6  2  0
  6  7  1  0
  6  8  1  0
  8  9  1  0
  8 10  2  0
 10 11  1  0
 11 12  2  0
 12 13  1  0
 13 14  1  0
 14 15  1  0
 15 16  1  0
 16 17  1  0
 17 18  1  0
 18 19  2  0
 19 20  1  0
 20 21  2  0
 21 22  1  0
 22 23  2  0
 23 24  1  0
 16 25  1  0
 16 26  1  0
 13 27  1  1
  7  2  1  0
 23 18  1  0
 12  5  1  0
M  CHG  1  15   1
M  END
$$$$
