
     RDKit          3D

 27 29  0  0  0  0  0  0  0  0999 V2000
   -3.6505    3.8262   10.2249 O   0  0  0  0  0  0  0  0  0  0  0  0
   -3.1654    3.3189    9.1808 C   0  0  0  0  0  0  0  0  0  0  0  0
   -2.4246    2.0361    9.1747 C   0  0  0  0  0  0  0  0  0  0  0  0
   -1.2848    2.1874    8.3772 O   0  0  0  0  0  0  0  0  0  0  0  0
   -1.3399    2.7787    7.1282 C   0  0  0  0  0  0  0  0  0  0  0  0
   -2.3741    3.6904    6.9115 C   0  0  0  0  0  0  0  0  0  0  0  0
   -3.3220    3.9882    7.9385 N   0  0  0  0  0  0  0  0  0  0  0  0
   -2.4642    4.3015    5.6829 C   0  0  0  0  0  0  0  0  0  0  0  0
   -3.4884    5.1998    5.4796 O   0  0  0  0  0  0  0  0  0  0  0  0
   -1.5520    4.0123    4.7023 C   0  0  0  0  0  0  0  0  0  0  0  0
   -0.5356    3.1179    4.9109 C   0  0  0  0  0  0  0  0  0  0  0  0
   -0.4178    2.4851    6.1387 C   0  0  0  0  0  0  0  0  0  0  0  0
    0.6382    1.5113    6.4409 C   0  0  2  0  0  0  0  0  0  0  0  0
    1.6579    1.9803    7.4420 C   0  0  0  0  0  0  0  0  0  0  0  0
    2.8848    1.2603    7.4006 N   0  0  0  0  0  4  0  0  0  0  0  0
    3.5850    1.2320    8.6956 C   0  0  0  0  0  0  0  0  0  0  0  0
    2.7137    0.7273    9.7790 C   0  0  0  0  0  0  0  0  0  0  0  0
    3.3453    0.4152   11.0667 C   0  0  0  0  0  0  0  0  0  0  0  0
    3.7024   -0.9185   11.3165 C   0  0  0  0  0  0  0  0  0  0  0  0
    4.3347   -1.3232   12.4666 C   0  0  0  0  0  0  0  0  0  0  0  0
    4.6461   -0.3982   13.4392 C   0  0  0  0  0  0  0  0  0  0  0  0
    4.3098    0.9101   13.2250 C   0  0  0  0  0  0  0  0  0  0  0  0
    3.6662    1.3045   12.0498 C   0  0  0  0  0  0  0  0  0  0  0  0
    3.3085    2.7327   11.9485 C   0  0  0  0  0  0  0  0  0  0  0  0
    4.0542    2.6343    8.9464 C   0  0  0  0  0  0  0  0  0  0  0  0
    4.8202    0.3345    8.5756 C   0  0  0  0  0  0  0  0  0  0  0  0
    1.2197    1.1462    5.2278 O   0  0  0  0  0  0  0  0  0  0  0  0
  1  2  2  0
  2  3  1  0
  3  4  1  0
  4  5  1  0
  5  6  2  0
  6  7  1  0
  6  8  1  0
  8  9  1  0
  8 10  2  0
 10 11  1  0
 11 12  2  0
 12 13  1  0
 13 14  1  0
 14 15  1  0
 15 16  1  0
 16 17  1  0
 17 18  1  0
 18 19  2  0
 19 20  1  0
 20 21  2  0
 21 22  1  0
 22 23  2  0
 23 24  1  0
 16 25  1  0
 16 26  1  0
 13 27  1  6
  7  2  1  0
 23 18  1  0
 12  5  1  0
M  CHG  1  15   1
M  END
$$$$
