
     RDKit          3D

 27 29  0  0  0  0  0  0  0  0999 V2000
   -2.7223    4.0926    3.8133 O   0  0  0  0  0  0  0  0  0  0  0  0
   -2.0895    4.2317    4.8918 C   0  0  0  0  0  0  0  0  0  0  0  0
   -0.6158    4.3694    4.9519 C   0  0  0  0  0  0  0  0  0  0  0  0
   -0.1381    3.5613    5.9895 O   0  0  0  0  0  0  0  0  0  0  0  0
   -0.7258    3.5556    7.2414 C   0  0  0  0  0  0  0  0  0  0  0  0
   -2.0740    3.9110    7.3024 C   0  0  0  0  0  0  0  0  0  0  0  0
   -2.7986    4.2611    6.1215 N   0  0  0  0  0  0  0  0  0  0  0  0
   -2.6968    3.9172    8.5284 C   0  0  0  0  0  0  0  0  0  0  0  0
   -4.0276    4.2691    8.5774 O   0  0  0  0  0  0  0  0  0  0  0  0
   -1.9969    3.5801    9.6571 C   0  0  0  0  0  0  0  0  0  0  0  0
   -0.6735    3.2309    9.6015 C   0  0  0  0  0  0  0  0  0  0  0  0
   -0.0173    3.2150    8.3804 C   0  0  0  0  0  0  0  0  0  0  0  0
    1.3992    2.8579    8.2359 C   0  0  2  0  0  0  0  0  0  0  0  0
    1.7497    1.4735    8.7075 C   0  0  0  0  0  0  0  0  0  0  0  0
    2.8240    1.4332    9.6399 N   0  0  0  0  0  4  0  0  0  0  0  0
    3.2539    0.0644    9.9711 C   0  0  0  0  0  0  0  0  0  0  0  0
    4.2745    0.0543   11.0416 C   0  0  0  0  0  0  0  0  0  0  0  0
    5.4746    0.8757   10.8415 C   0  0  0  0  0  0  0  0  0  0  0  0
    5.4678    2.1828   11.3516 C   0  0  0  0  0  0  0  0  0  0  0  0
    6.5456    3.0291   11.2610 C   0  0  0  0  0  0  0  0  0  0  0  0
    7.7022    2.6024   10.6455 C   0  0  0  0  0  0  0  0  0  0  0  0
    7.7390    1.3332   10.1372 C   0  0  0  0  0  0  0  0  0  0  0  0
    6.6335    0.4855   10.2374 C   0  0  0  0  0  0  0  0  0  0  0  0
    6.7703   -0.8437    9.6109 C   0  0  0  0  0  0  0  0  0  0  0  0
    3.7610   -0.5340    8.6927 C   0  0  0  0  0  0  0  0  0  0  0  0
    2.0352   -0.7462   10.4218 C   0  0  0  0  0  0  0  0  0  0  0  0
    2.1395    3.8409    8.8906 O   0  0  0  0  0  0  0  0  0  0  0  0
  1  2  2  0
  2  3  1  0
  3  4  1  0
  4  5  1  0
  5  6  2  0
  6  7  1  0
  6  8  1  0
  8  9  1  0
  8 10  2  0
 10 11  1  0
 11 12  2  0
 12 13  1  0
 13 14  1  0
 14 15  1  0
 15 16  1  0
 16 17  1  0
 17 18  1  0
 18 19  2  0
 19 20  1  0
 20 21  2  0
 21 22  1  0
 22 23  2  0
 23 24  1  0
 16 25  1  0
 16 26  1  0
 13 27  1  1
  7  2  1  0
 23 18  1  0
 12  5  1  0
M  CHG  1  15   1
M  END
$$$$
