
     RDKit          3D

 27 29  0  0  0  0  0  0  0  0999 V2000
   -4.1840    4.4285    9.8276 O   0  0  0  0  0  0  0  0  0  0  0  0
   -3.5748    3.7940    8.9280 C   0  0  0  0  0  0  0  0  0  0  0  0
   -2.8195    2.5468    9.1892 C   0  0  0  0  0  0  0  0  0  0  0  0
   -1.5981    2.6191    8.5104 O   0  0  0  0  0  0  0  0  0  0  0  0
   -1.5180    3.0260    7.1910 C   0  0  0  0  0  0  0  0  0  0  0  0
   -2.5338    3.8655    6.7314 C   0  0  0  0  0  0  0  0  0  0  0  0
   -3.5976    4.2760    7.5927 N   0  0  0  0  0  0  0  0  0  0  0  0
   -2.4912    4.2939    5.4254 C   0  0  0  0  0  0  0  0  0  0  0  0
   -3.4983    5.1223    4.9820 O   0  0  0  0  0  0  0  0  0  0  0  0
   -1.4683    3.8974    4.6045 C   0  0  0  0  0  0  0  0  0  0  0  0
   -0.4696    3.0733    5.0517 C   0  0  0  0  0  0  0  0  0  0  0  0
   -0.4843    2.6242    6.3632 C   0  0  0  0  0  0  0  0  0  0  0  0
    0.5443    1.7361    6.9182 C   0  0  2  0  0  0  0  0  0  0  0  0
    1.4301    2.3707    7.9547 C   0  0  0  0  0  0  0  0  0  0  0  0
    2.4351    1.5037    8.4680 N   0  0  0  0  0  4  0  0  0  0  0  0
    3.1702    2.0777    9.6074 C   0  0  0  0  0  0  0  0  0  0  0  0
    2.6428    1.5916   10.9009 C   0  0  0  0  0  0  0  0  0  0  0  0
    3.2527    0.3841   11.4706 C   0  0  0  0  0  0  0  0  0  0  0  0
    2.6200   -0.8455   11.2326 C   0  0  0  0  0  0  0  0  0  0  0  0
    3.1184   -2.0447   11.6795 C   0  0  0  0  0  0  0  0  0  0  0  0
    4.2936   -2.0732   12.3983 C   0  0  0  0  0  0  0  0  0  0  0  0
    4.9333   -0.8903   12.6474 C   0  0  0  0  0  0  0  0  0  0  0  0
    4.4122    0.3207   12.1860 C   0  0  0  0  0  0  0  0  0  0  0  0
    5.1613    1.5375   12.5553 C   0  0  0  0  0  0  0  0  0  0  0  0
    3.0580    3.5669    9.4681 C   0  0  0  0  0  0  0  0  0  0  0  0
    4.6500    1.7018    9.4871 C   0  0  0  0  0  0  0  0  0  0  0  0
    1.2716    1.2277    5.8432 O   0  0  0  0  0  0  0  0  0  0  0  0
  1  2  2  0
  2  3  1  0
  3  4  1  0
  4  5  1  0
  5  6  2  0
  6  7  1  0
  6  8  1  0
  8  9  1  0
  8 10  2  0
 10 11  1  0
 11 12  2  0
 12 13  1  0
 13 14  1  0
 14 15  1  0
 15 16  1  0
 16 17  1  0
 17 18  1  0
 18 19  2  0
 19 20  1  0
 20 21  2  0
 21 22  1  0
 22 23  2  0
 23 24  1  0
 16 25  1  0
 16 26  1  0
 13 27  1  6
  7  2  1  0
 23 18  1  0
 12  5  1  0
M  CHG  1  15   1
M  END
$$$$
