
     RDKit          3D

 27 29  0  0  0  0  0  0  0  0999 V2000
   -3.2898    4.8345    4.1887 O   0  0  0  0  0  0  0  0  0  0  0  0
   -2.4868    4.5388    5.1110 C   0  0  0  0  0  0  0  0  0  0  0  0
   -1.0414    4.3103    4.8814 C   0  0  0  0  0  0  0  0  0  0  0  0
   -0.6541    3.1729    5.5986 O   0  0  0  0  0  0  0  0  0  0  0  0
   -1.0228    2.9799    6.9176 C   0  0  0  0  0  0  0  0  0  0  0  0
   -2.1943    3.6103    7.3395 C   0  0  0  0  0  0  0  0  0  0  0  0
   -2.9644    4.4126    6.4421 N   0  0  0  0  0  0  0  0  0  0  0  0
   -2.5968    3.4433    8.6438 C   0  0  0  0  0  0  0  0  0  0  0  0
   -3.7545    4.0695    9.0498 O   0  0  0  0  0  0  0  0  0  0  0  0
   -1.8545    2.6724    9.4993 C   0  0  0  0  0  0  0  0  0  0  0  0
   -0.7040    2.0522    9.0892 C   0  0  0  0  0  0  0  0  0  0  0  0
   -0.2716    2.2012    7.7805 C   0  0  0  0  0  0  0  0  0  0  0  0
    0.9514    1.5749    7.2639 C   0  0  2  0  0  0  0  0  0  0  0  0
    2.1704    1.7745    8.1218 C   0  0  0  0  0  0  0  0  0  0  0  0
    3.2872    0.9813    7.7360 N   0  0  0  0  0  4  0  0  0  0  0  0
    4.2708    0.7994    8.8164 C   0  0  0  0  0  0  0  0  0  0  0  0
    3.6169    0.6666   10.1364 C   0  0  0  0  0  0  0  0  0  0  0  0
    4.3708   -0.0056   11.2016 C   0  0  0  0  0  0  0  0  0  0  0  0
    4.1317   -1.3719   11.4130 C   0  0  0  0  0  0  0  0  0  0  0  0
    4.8049   -2.1149   12.3516 C   0  0  0  0  0  0  0  0  0  0  0  0
    5.7660   -1.5178   13.1378 C   0  0  0  0  0  0  0  0  0  0  0  0
    6.0209   -0.1864   12.9559 C   0  0  0  0  0  0  0  0  0  0  0  0
    5.3266    0.5548   11.9970 C   0  0  0  0  0  0  0  0  0  0  0  0
    5.6504    1.9927   11.9222 C   0  0  0  0  0  0  0  0  0  0  0  0
    5.1873    1.9848    8.7496 C   0  0  0  0  0  0  0  0  0  0  0  0
    5.1002   -0.4560    8.5303 C   0  0  0  0  0  0  0  0  0  0  0  0
    1.1376    2.0467    5.9656 O   0  0  0  0  0  0  0  0  0  0  0  0
  1  2  2  0
  2  3  1  0
  3  4  1  0
  4  5  1  0
  5  6  2  0
  6  7  1  0
  6  8  1  0
  8  9  1  0
  8 10  2  0
 10 11  1  0
 11 12  2  0
 12 13  1  0
 13 14  1  0
 14 15  1  0
 15 16  1  0
 16 17  1  0
 17 18  1  0
 18 19  2  0
 19 20  1  0
 20 21  2  0
 21 22  1  0
 22 23  2  0
 23 24  1  0
 16 25  1  0
 16 26  1  0
 13 27  1  6
  7  2  1  0
 23 18  1  0
 12  5  1  0
M  CHG  1  15   1
M  END
$$$$
