
     RDKit          3D

 27 29  0  0  0  0  0  0  0  0999 V2000
   -4.0469    4.0041    9.9820 O   0  0  0  0  0  0  0  0  0  0  0  0
   -3.4859    3.4230    9.0174 C   0  0  0  0  0  0  0  0  0  0  0  0
   -2.7041    2.1741    9.1708 C   0  0  0  0  0  0  0  0  0  0  0  0
   -1.5258    2.2957    8.4259 O   0  0  0  0  0  0  0  0  0  0  0  0
   -1.5282    2.7686    7.1262 C   0  0  0  0  0  0  0  0  0  0  0  0
   -2.5777    3.6167    6.7699 C   0  0  0  0  0  0  0  0  0  0  0  0
   -3.5926    3.9702    7.7117 N   0  0  0  0  0  0  0  0  0  0  0  0
   -2.6168    4.1098    5.4868 C   0  0  0  0  0  0  0  0  0  0  0  0
   -3.6567    4.9462    5.1455 O   0  0  0  0  0  0  0  0  0  0  0  0
   -1.6406    3.7677    4.5883 C   0  0  0  0  0  0  0  0  0  0  0  0
   -0.6089    2.9355    4.9341 C   0  0  0  0  0  0  0  0  0  0  0  0
   -0.5414    2.4217    6.2200 C   0  0  0  0  0  0  0  0  0  0  0  0
    0.5270    1.5205    6.6682 C   0  0  2  0  0  0  0  0  0  0  0  0
    1.3307    2.0289    7.8334 C   0  0  0  0  0  0  0  0  0  0  0  0
    2.5498    1.3267    8.0473 N   0  0  0  0  0  4  0  0  0  0  0  0
    2.9287    1.2411    9.4675 C   0  0  0  0  0  0  0  0  0  0  0  0
    4.3176    0.7612    9.6364 C   0  0  0  0  0  0  0  0  0  0  0  0
    4.7110    0.2793   10.9660 C   0  0  0  0  0  0  0  0  0  0  0  0
    4.4634   -1.0666   11.2760 C   0  0  0  0  0  0  0  0  0  0  0  0
    4.8236   -1.6397   12.4709 C   0  0  0  0  0  0  0  0  0  0  0  0
    5.4596   -0.8823   13.4302 C   0  0  0  0  0  0  0  0  0  0  0  0
    5.7139    0.4337   13.1577 C   0  0  0  0  0  0  0  0  0  0  0  0
    5.3402    1.0010   11.9373 C   0  0  0  0  0  0  0  0  0  0  0  0
    5.6215    2.4404   11.7725 C   0  0  0  0  0  0  0  0  0  0  0  0
    1.9271    0.3294   10.1119 C   0  0  0  0  0  0  0  0  0  0  0  0
    2.7871    2.6259   10.1063 C   0  0  0  0  0  0  0  0  0  0  0  0
    1.3241    1.2444    5.5586 O   0  0  0  0  0  0  0  0  0  0  0  0
  1  2  2  0
  2  3  1  0
  3  4  1  0
  4  5  1  0
  5  6  2  0
  6  7  1  0
  6  8  1  0
  8  9  1  0
  8 10  2  0
 10 11  1  0
 11 12  2  0
 12 13  1  0
 13 14  1  0
 14 15  1  0
 15 16  1  0
 16 17  1  0
 17 18  1  0
 18 19  2  0
 19 20  1  0
 20 21  2  0
 21 22  1  0
 22 23  2  0
 23 24  1  0
 16 25  1  0
 16 26  1  0
 13 27  1  6
  7  2  1  0
 23 18  1  0
 12  5  1  0
M  CHG  1  15   1
M  END
$$$$
