
     RDKit          3D

 27 29  0  0  0  0  0  0  0  0999 V2000
   -4.5852    5.3016    8.8116 O   0  0  0  0  0  0  0  0  0  0  0  0
   -3.8661    4.3750    8.3564 C   0  0  0  0  0  0  0  0  0  0  0  0
   -3.5689    3.1368    9.1133 C   0  0  0  0  0  0  0  0  0  0  0  0
   -2.2064    2.8499    8.9744 O   0  0  0  0  0  0  0  0  0  0  0  0
   -1.5725    2.8904    7.7458 C   0  0  0  0  0  0  0  0  0  0  0  0
   -2.1319    3.7274    6.7793 C   0  0  0  0  0  0  0  0  0  0  0  0
   -3.3020    4.4984    7.0593 N   0  0  0  0  0  0  0  0  0  0  0  0
   -1.5316    3.7974    5.5441 C   0  0  0  0  0  0  0  0  0  0  0  0
   -2.0915    4.6267    4.5976 O   0  0  0  0  0  0  0  0  0  0  0  0
   -0.4095    3.0561    5.2817 C   0  0  0  0  0  0  0  0  0  0  0  0
    0.1425    2.2332    6.2276 C   0  0  0  0  0  0  0  0  0  0  0  0
   -0.4394    2.1407    7.4825 C   0  0  0  0  0  0  0  0  0  0  0  0
    0.0865    1.2796    8.5486 C   0  0  2  0  0  0  0  0  0  0  0  0
    1.5753    1.0703    8.5107 C   0  0  0  0  0  0  0  0  0  0  0  0
    2.0843    0.3256    9.6114 N   0  0  0  0  0  4  0  0  0  0  0  0
    3.5513    0.1994    9.5979 C   0  0  0  0  0  0  0  0  0  0  0  0
    4.2029    1.4310    9.1015 C   0  0  0  0  0  0  0  0  0  0  0  0
    3.9184    2.6825    9.8139 C   0  0  0  0  0  0  0  0  0  0  0  0
    3.2862    3.7135    9.1025 C   0  0  0  0  0  0  0  0  0  0  0  0
    2.9340    4.9122    9.6730 C   0  0  0  0  0  0  0  0  0  0  0  0
    3.2014    5.1421   11.0049 C   0  0  0  0  0  0  0  0  0  0  0  0
    3.8180    4.1561   11.7248 C   0  0  0  0  0  0  0  0  0  0  0  0
    4.1700    2.9429   11.1289 C   0  0  0  0  0  0  0  0  0  0  0  0
    4.8737    1.9721   11.9894 C   0  0  0  0  0  0  0  0  0  0  0  0
    3.8591   -0.9940    8.7432 C   0  0  0  0  0  0  0  0  0  0  0  0
    4.0398   -0.0980   11.0187 C   0  0  0  0  0  0  0  0  0  0  0  0
   -0.6164    0.0773    8.4898 O   0  0  0  0  0  0  0  0  0  0  0  0
  1  2  2  0
  2  3  1  0
  3  4  1  0
  4  5  1  0
  5  6  2  0
  6  7  1  0
  6  8  1  0
  8  9  1  0
  8 10  2  0
 10 11  1  0
 11 12  2  0
 12 13  1  0
 13 14  1  0
 14 15  1  0
 15 16  1  0
 16 17  1  0
 17 18  1  0
 18 19  2  0
 19 20  1  0
 20 21  2  0
 21 22  1  0
 22 23  2  0
 23 24  1  0
 16 25  1  0
 16 26  1  0
 13 27  1  6
  7  2  1  0
 23 18  1  0
 12  5  1  0
M  CHG  1  15   1
M  END
$$$$
