
     RDKit          3D

 27 29  0  0  0  0  0  0  0  0999 V2000
   -3.6448    4.1451   10.1799 O   0  0  0  0  0  0  0  0  0  0  0  0
   -3.1326    3.5239    9.2131 C   0  0  0  0  0  0  0  0  0  0  0  0
   -2.3973    2.2477    9.3713 C   0  0  0  0  0  0  0  0  0  0  0  0
   -1.2348    2.3079    8.5947 O   0  0  0  0  0  0  0  0  0  0  0  0
   -1.2522    2.7561    7.2864 C   0  0  0  0  0  0  0  0  0  0  0  0
   -2.2762    3.6389    6.9400 C   0  0  0  0  0  0  0  0  0  0  0  0
   -3.2514    4.0504    7.8999 N   0  0  0  0  0  0  0  0  0  0  0  0
   -2.3290    4.1091    5.6488 C   0  0  0  0  0  0  0  0  0  0  0  0
   -3.3434    4.9800    5.3174 O   0  0  0  0  0  0  0  0  0  0  0  0
   -1.3908    3.7112    4.7329 C   0  0  0  0  0  0  0  0  0  0  0  0
   -0.3844    2.8448    5.0690 C   0  0  0  0  0  0  0  0  0  0  0  0
   -0.3039    2.3529    6.3626 C   0  0  0  0  0  0  0  0  0  0  0  0
    0.7392    1.4180    6.8015 C   0  0  2  0  0  0  0  0  0  0  0  0
    1.6716    1.9627    7.8483 C   0  0  0  0  0  0  0  0  0  0  0  0
    2.5238    0.9837    8.4317 N   0  0  0  0  0  4  0  0  0  0  0  0
    3.2428    1.4738    9.6195 C   0  0  0  0  0  0  0  0  0  0  0  0
    4.2273    0.4854   10.1109 C   0  0  0  0  0  0  0  0  0  0  0  0
    3.9566   -0.1556   11.4034 C   0  0  0  0  0  0  0  0  0  0  0  0
    3.1966   -1.3352   11.4045 C   0  0  0  0  0  0  0  0  0  0  0  0
    2.9139   -2.0444   12.5461 C   0  0  0  0  0  0  0  0  0  0  0  0
    3.3852   -1.6012   13.7626 C   0  0  0  0  0  0  0  0  0  0  0  0
    4.1284   -0.4534   13.7940 C   0  0  0  0  0  0  0  0  0  0  0  0
    4.4062    0.2561   12.6234 C   0  0  0  0  0  0  0  0  0  0  0  0
    5.1756    1.5053   12.7836 C   0  0  0  0  0  0  0  0  0  0  0  0
    2.1919    1.7902   10.6418 C   0  0  0  0  0  0  0  0  0  0  0  0
    3.9639    2.7773    9.2638 C   0  0  0  0  0  0  0  0  0  0  0  0
    1.4180    0.9945    5.6601 O   0  0  0  0  0  0  0  0  0  0  0  0
  1  2  2  0
  2  3  1  0
  3  4  1  0
  4  5  1  0
  5  6  2  0
  6  7  1  0
  6  8  1  0
  8  9  1  0
  8 10  2  0
 10 11  1  0
 11 12  2  0
 12 13  1  0
 13 14  1  0
 14 15  1  0
 15 16  1  0
 16 17  1  0
 17 18  1  0
 18 19  2  0
 19 20  1  0
 20 21  2  0
 21 22  1  0
 22 23  2  0
 23 24  1  0
 16 25  1  0
 16 26  1  0
 13 27  1  6
  7  2  1  0
 23 18  1  0
 12  5  1  0
M  CHG  1  15   1
M  END
$$$$
