
     RDKit          3D

 27 29  0  0  0  0  0  0  0  0999 V2000
   -4.1584    5.1489    8.8793 O   0  0  0  0  0  0  0  0  0  0  0  0
   -3.4142    4.2584    8.3935 C   0  0  0  0  0  0  0  0  0  0  0  0
   -3.0057    3.0486    9.1444 C   0  0  0  0  0  0  0  0  0  0  0  0
   -1.6389    2.8368    8.9322 O   0  0  0  0  0  0  0  0  0  0  0  0
   -1.0773    2.8973    7.6698 C   0  0  0  0  0  0  0  0  0  0  0  0
   -1.7358    3.6894    6.7281 C   0  0  0  0  0  0  0  0  0  0  0  0
   -2.9305    4.3970    7.0657 N   0  0  0  0  0  0  0  0  0  0  0  0
   -1.2096    3.7773    5.4607 C   0  0  0  0  0  0  0  0  0  0  0  0
   -1.8672    4.5619    4.5391 O   0  0  0  0  0  0  0  0  0  0  0  0
   -0.0636    3.0969    5.1430 C   0  0  0  0  0  0  0  0  0  0  0  0
    0.5857    2.3183    6.0643 C   0  0  0  0  0  0  0  0  0  0  0  0
    0.0803    2.2091    7.3506 C   0  0  0  0  0  0  0  0  0  0  0  0
    0.7123    1.3924    8.3938 C   0  0  2  0  0  0  0  0  0  0  0  0
    2.2159    1.4250    8.3929 C   0  0  0  0  0  0  0  0  0  0  0  0
    2.7990    1.3130    9.6862 N   0  0  0  0  0  4  0  0  0  0  0  0
    4.2678    1.2145    9.6540 C   0  0  0  0  0  0  0  0  0  0  0  0
    4.7183   -0.0838    9.1070 C   0  0  0  0  0  0  0  0  0  0  0  0
    5.8577   -0.7367    9.7628 C   0  0  0  0  0  0  0  0  0  0  0  0
    7.1332   -0.5391    9.2124 C   0  0  0  0  0  0  0  0  0  0  0  0
    8.2769   -1.0650    9.7614 C   0  0  0  0  0  0  0  0  0  0  0  0
    8.1997   -1.8270   10.9069 C   0  0  0  0  0  0  0  0  0  0  0  0
    6.9697   -2.0383   11.4665 C   0  0  0  0  0  0  0  0  0  0  0  0
    5.8163   -1.4965   10.8948 C   0  0  0  0  0  0  0  0  0  0  0  0
    4.5402   -1.8301   11.5568 C   0  0  0  0  0  0  0  0  0  0  0  0
    4.7311    1.4321   11.0638 C   0  0  0  0  0  0  0  0  0  0  0  0
    4.8255    2.3512    8.7923 C   0  0  0  0  0  0  0  0  0  0  0  0
    0.2131    0.0978    8.2607 O   0  0  0  0  0  0  0  0  0  0  0  0
  1  2  2  0
  2  3  1  0
  3  4  1  0
  4  5  1  0
  5  6  2  0
  6  7  1  0
  6  8  1  0
  8  9  1  0
  8 10  2  0
 10 11  1  0
 11 12  2  0
 12 13  1  0
 13 14  1  0
 14 15  1  0
 15 16  1  0
 16 17  1  0
 17 18  1  0
 18 19  2  0
 19 20  1  0
 20 21  2  0
 21 22  1  0
 22 23  2  0
 23 24  1  0
 16 25  1  0
 16 26  1  0
 13 27  1  6
  7  2  1  0
 23 18  1  0
 12  5  1  0
M  CHG  1  15   1
M  END
$$$$
