
     RDKit          3D

 27 29  0  0  0  0  0  0  0  0999 V2000
   -3.6267    3.5430   10.1378 O   0  0  0  0  0  0  0  0  0  0  0  0
   -3.1448    3.0996    9.0636 C   0  0  0  0  0  0  0  0  0  0  0  0
   -2.5322    1.7559    8.9469 C   0  0  0  0  0  0  0  0  0  0  0  0
   -1.3471    1.8726    8.2120 O   0  0  0  0  0  0  0  0  0  0  0  0
   -1.2863    2.5919    7.0324 C   0  0  0  0  0  0  0  0  0  0  0  0
   -2.2162    3.6210    6.8773 C   0  0  0  0  0  0  0  0  0  0  0  0
   -3.1778    3.9058    7.8953 N   0  0  0  0  0  0  0  0  0  0  0  0
   -2.1893    4.3615    5.7188 C   0  0  0  0  0  0  0  0  0  0  0  0
   -3.1111    5.3749    5.5760 O   0  0  0  0  0  0  0  0  0  0  0  0
   -1.2646    4.0840    4.7465 C   0  0  0  0  0  0  0  0  0  0  0  0
   -0.3503    3.0747    4.8948 C   0  0  0  0  0  0  0  0  0  0  0  0
   -0.3518    2.3101    6.0512 C   0  0  0  0  0  0  0  0  0  0  0  0
    0.5898    1.2086    6.2853 C   0  0  2  0  0  0  0  0  0  0  0  0
    1.4701    1.3801    7.4926 C   0  0  0  0  0  0  0  0  0  0  0  0
    2.3962    0.3178    7.6904 N   0  0  0  0  0  4  0  0  0  0  0  0
    3.1353    0.4211    8.9597 C   0  0  0  0  0  0  0  0  0  0  0  0
    3.0355    1.7764    9.5435 C   0  0  0  0  0  0  0  0  0  0  0  0
    3.9250    2.0980   10.6659 C   0  0  0  0  0  0  0  0  0  0  0  0
    5.1547    2.7081   10.3749 C   0  0  0  0  0  0  0  0  0  0  0  0
    6.0499    3.0913   11.3434 C   0  0  0  0  0  0  0  0  0  0  0  0
    5.7542    2.8795   12.6724 C   0  0  0  0  0  0  0  0  0  0  0  0
    4.5631    2.2857   12.9877 C   0  0  0  0  0  0  0  0  0  0  0  0
    3.6642    1.9016   11.9901 C   0  0  0  0  0  0  0  0  0  0  0  0
    2.4330    1.2266   12.4447 C   0  0  0  0  0  0  0  0  0  0  0  0
    4.5513    0.0354    8.6501 C   0  0  0  0  0  0  0  0  0  0  0  0
    2.5722   -0.6027    9.9500 C   0  0  0  0  0  0  0  0  0  0  0  0
    1.3275    1.0429    5.1143 O   0  0  0  0  0  0  0  0  0  0  0  0
  1  2  2  0
  2  3  1  0
  3  4  1  0
  4  5  1  0
  5  6  2  0
  6  7  1  0
  6  8  1  0
  8  9  1  0
  8 10  2  0
 10 11  1  0
 11 12  2  0
 12 13  1  0
 13 14  1  0
 14 15  1  0
 15 16  1  0
 16 17  1  0
 17 18  1  0
 18 19  2  0
 19 20  1  0
 20 21  2  0
 21 22  1  0
 22 23  2  0
 23 24  1  0
 16 25  1  0
 16 26  1  0
 13 27  1  6
  7  2  1  0
 23 18  1  0
 12  5  1  0
M  CHG  1  15   1
M  END
$$$$
