
     RDKit          3D

 27 29  0  0  0  0  0  0  0  0999 V2000
   -4.1480    5.2618    9.5680 O   0  0  0  0  0  0  0  0  0  0  0  0
   -3.2755    4.5509    9.0056 C   0  0  0  0  0  0  0  0  0  0  0  0
   -2.0814    4.0293    9.7101 C   0  0  0  0  0  0  0  0  0  0  0  0
   -0.9665    4.2100    8.8840 O   0  0  0  0  0  0  0  0  0  0  0  0
   -0.9872    3.8700    7.5436 C   0  0  0  0  0  0  0  0  0  0  0  0
   -2.2330    3.8767    6.9145 C   0  0  0  0  0  0  0  0  0  0  0  0
   -3.4199    4.2197    7.6325 N   0  0  0  0  0  0  0  0  0  0  0  0
   -2.2973    3.5453    5.5815 C   0  0  0  0  0  0  0  0  0  0  0  0
   -3.5316    3.5553    4.9702 O   0  0  0  0  0  0  0  0  0  0  0  0
   -1.1558    3.2177    4.8983 C   0  0  0  0  0  0  0  0  0  0  0  0
    0.0689    3.2098    5.5121 C   0  0  0  0  0  0  0  0  0  0  0  0
    0.1669    3.5391    6.8552 C   0  0  0  0  0  0  0  0  0  0  0  0
    1.4391    3.5495    7.5874 C   0  0  2  0  0  0  0  0  0  0  0  0
    2.0673    2.1961    7.7754 C   0  0  0  0  0  0  0  0  0  0  0  0
    2.5682    1.9665    9.0875 N   0  0  0  0  0  4  0  0  0  0  0  0
    3.3620    0.7313    9.1978 C   0  0  0  0  0  0  0  0  0  0  0  0
    3.7396    0.4456   10.5991 C   0  0  0  0  0  0  0  0  0  0  0  0
    2.6559    0.1714   11.5504 C   0  0  0  0  0  0  0  0  0  0  0  0
    1.8402    1.2435   11.9430 C   0  0  0  0  0  0  0  0  0  0  0  0
    0.7723    1.1011   12.7948 C   0  0  0  0  0  0  0  0  0  0  0  0
    0.4628   -0.1412   13.3041 C   0  0  0  0  0  0  0  0  0  0  0  0
    1.2404   -1.2060   12.9406 C   0  0  0  0  0  0  0  0  0  0  0  0
    2.3234   -1.0435   12.0736 C   0  0  0  0  0  0  0  0  0  0  0  0
    3.1203   -2.2528   11.7896 C   0  0  0  0  0  0  0  0  0  0  0  0
    4.5570    0.9233    8.3121 C   0  0  0  0  0  0  0  0  0  0  0  0
    2.5446   -0.4385    8.6420 C   0  0  0  0  0  0  0  0  0  0  0  0
    1.2097    4.1972    8.8002 O   0  0  0  0  0  0  0  0  0  0  0  0
  1  2  2  0
  2  3  1  0
  3  4  1  0
  4  5  1  0
  5  6  2  0
  6  7  1  0
  6  8  1  0
  8  9  1  0
  8 10  2  0
 10 11  1  0
 11 12  2  0
 12 13  1  0
 13 14  1  0
 14 15  1  0
 15 16  1  0
 16 17  1  0
 17 18  1  0
 18 19  2  0
 19 20  1  0
 20 21  2  0
 21 22  1  0
 22 23  2  0
 23 24  1  0
 16 25  1  0
 16 26  1  0
 13 27  1  1
  7  2  1  0
 23 18  1  0
 12  5  1  0
M  CHG  1  15   1
M  END
$$$$
