
     RDKit          3D

 27 29  0  0  0  0  0  0  0  0999 V2000
   -3.8263    4.0212    9.8832 O   0  0  0  0  0  0  0  0  0  0  0  0
   -3.1983    3.5047    8.9231 C   0  0  0  0  0  0  0  0  0  0  0  0
   -2.5604    2.1699    8.9997 C   0  0  0  0  0  0  0  0  0  0  0  0
   -1.2881    2.2541    8.4233 O   0  0  0  0  0  0  0  0  0  0  0  0
   -1.0762    2.8787    7.2077 C   0  0  0  0  0  0  0  0  0  0  0  0
   -1.9881    3.8714    6.8459 C   0  0  0  0  0  0  0  0  0  0  0  0
   -3.0818    4.2146    7.6990 N   0  0  0  0  0  0  0  0  0  0  0  0
   -1.8128    4.5179    5.6449 C   0  0  0  0  0  0  0  0  0  0  0  0
   -2.7182    5.4961    5.2975 O   0  0  0  0  0  0  0  0  0  0  0  0
   -0.7619    4.1848    4.8313 C   0  0  0  0  0  0  0  0  0  0  0  0
    0.1351    3.2109    5.1828 C   0  0  0  0  0  0  0  0  0  0  0  0
   -0.0143    2.5407    6.3871 C   0  0  0  0  0  0  0  0  0  0  0  0
    0.8992    1.4824    6.8345 C   0  0  2  0  0  0  0  0  0  0  0  0
    1.7087    1.8252    8.0548 C   0  0  0  0  0  0  0  0  0  0  0  0
    2.4494    0.7319    8.5851 N   0  0  0  0  0  4  0  0  0  0  0  0
    2.6472    0.8172   10.0417 C   0  0  0  0  0  0  0  0  0  0  0  0
    4.0345    0.4789   10.4273 C   0  0  0  0  0  0  0  0  0  0  0  0
    5.1191    1.2277    9.7811 C   0  0  0  0  0  0  0  0  0  0  0  0
    5.6022    0.7538    8.5520 C   0  0  0  0  0  0  0  0  0  0  0  0
    6.5848    1.3921    7.8356 C   0  0  0  0  0  0  0  0  0  0  0  0
    7.1415    2.5550    8.3215 C   0  0  0  0  0  0  0  0  0  0  0  0
    6.6920    3.0416    9.5181 C   0  0  0  0  0  0  0  0  0  0  0  0
    5.6922    2.3794   10.2343 C   0  0  0  0  0  0  0  0  0  0  0  0
    5.3205    2.9692   11.5351 C   0  0  0  0  0  0  0  0  0  0  0  0
    1.6415   -0.1120   10.6540 C   0  0  0  0  0  0  0  0  0  0  0  0
    2.3216    2.2395   10.5073 C   0  0  0  0  0  0  0  0  0  0  0  0
    1.7028    1.1462    5.7463 O   0  0  0  0  0  0  0  0  0  0  0  0
  1  2  2  0
  2  3  1  0
  3  4  1  0
  4  5  1  0
  5  6  2  0
  6  7  1  0
  6  8  1  0
  8  9  1  0
  8 10  2  0
 10 11  1  0
 11 12  2  0
 12 13  1  0
 13 14  1  0
 14 15  1  0
 15 16  1  0
 16 17  1  0
 17 18  1  0
 18 19  2  0
 19 20  1  0
 20 21  2  0
 21 22  1  0
 22 23  2  0
 23 24  1  0
 16 25  1  0
 16 26  1  0
 13 27  1  6
  7  2  1  0
 23 18  1  0
 12  5  1  0
M  CHG  1  15   1
M  END
$$$$
