
     RDKit          3D

 27 29  0  0  0  0  0  0  0  0999 V2000
   -3.7967    3.9412   10.0113 O   0  0  0  0  0  0  0  0  0  0  0  0
   -3.2801    3.3916    9.0044 C   0  0  0  0  0  0  0  0  0  0  0  0
   -2.7594    2.0049    9.0191 C   0  0  0  0  0  0  0  0  0  0  0  0
   -1.5244    1.9892    8.3614 O   0  0  0  0  0  0  0  0  0  0  0  0
   -1.3367    2.6177    7.1438 C   0  0  0  0  0  0  0  0  0  0  0  0
   -2.1784    3.6935    6.8575 C   0  0  0  0  0  0  0  0  0  0  0  0
   -3.1802    4.1135    7.7859 N   0  0  0  0  0  0  0  0  0  0  0  0
   -2.0243    4.3467    5.6572 C   0  0  0  0  0  0  0  0  0  0  0  0
   -2.8599    5.4072    5.3847 O   0  0  0  0  0  0  0  0  0  0  0  0
   -1.0616    3.9397    4.7713 C   0  0  0  0  0  0  0  0  0  0  0  0
   -0.2336    2.8841    5.0485 C   0  0  0  0  0  0  0  0  0  0  0  0
   -0.3640    2.2050    6.2500 C   0  0  0  0  0  0  0  0  0  0  0  0
    0.4791    1.0620    6.6205 C   0  0  2  0  0  0  0  0  0  0  0  0
    1.7414    1.4235    7.3540 C   0  0  0  0  0  0  0  0  0  0  0  0
    2.4452    0.3054    7.8829 N   0  0  0  0  0  4  0  0  0  0  0  0
    3.5556    0.6862    8.7717 C   0  0  0  0  0  0  0  0  0  0  0  0
    3.0692    1.1419   10.0922 C   0  0  0  0  0  0  0  0  0  0  0  0
    1.7994    1.8773   10.1297 C   0  0  0  0  0  0  0  0  0  0  0  0
    0.6376    1.1641   10.4619 C   0  0  0  0  0  0  0  0  0  0  0  0
   -0.5991    1.7519   10.5680 C   0  0  0  0  0  0  0  0  0  0  0  0
   -0.7365    3.1044   10.3433 C   0  0  0  0  0  0  0  0  0  0  0  0
    0.3780    3.8267   10.0166 C   0  0  0  0  0  0  0  0  0  0  0  0
    1.6283    3.2128    9.9123 C   0  0  0  0  0  0  0  0  0  0  0  0
    2.7507    4.0810    9.5068 C   0  0  0  0  0  0  0  0  0  0  0  0
    4.3231    1.7516    8.0469 C   0  0  0  0  0  0  0  0  0  0  0  0
    4.4815   -0.5194    8.9584 C   0  0  0  0  0  0  0  0  0  0  0  0
    0.7350    0.3447    5.4531 O   0  0  0  0  0  0  0  0  0  0  0  0
  1  2  2  0
  2  3  1  0
  3  4  1  0
  4  5  1  0
  5  6  2  0
  6  7  1  0
  6  8  1  0
  8  9  1  0
  8 10  2  0
 10 11  1  0
 11 12  2  0
 12 13  1  0
 13 14  1  0
 14 15  1  0
 15 16  1  0
 16 17  1  0
 17 18  1  0
 18 19  2  0
 19 20  1  0
 20 21  2  0
 21 22  1  0
 22 23  2  0
 23 24  1  0
 16 25  1  0
 16 26  1  0
 13 27  1  6
  7  2  1  0
 23 18  1  0
 12  5  1  0
M  CHG  1  15   1
M  END
$$$$
