
     RDKit          3D

 27 29  0  0  0  0  0  0  0  0999 V2000
   -3.8657    4.3772    9.8735 O   0  0  0  0  0  0  0  0  0  0  0  0
   -3.3147    3.7710    8.9187 C   0  0  0  0  0  0  0  0  0  0  0  0
   -2.5467    2.5165    9.0938 C   0  0  0  0  0  0  0  0  0  0  0  0
   -1.3697    2.6100    8.3429 O   0  0  0  0  0  0  0  0  0  0  0  0
   -1.3711    3.0574    7.0343 C   0  0  0  0  0  0  0  0  0  0  0  0
   -2.4121    3.9105    6.6648 C   0  0  0  0  0  0  0  0  0  0  0  0
   -3.4197    4.2939    7.6028 N   0  0  0  0  0  0  0  0  0  0  0  0
   -2.4501    4.3789    5.3725 C   0  0  0  0  0  0  0  0  0  0  0  0
   -3.4815    5.2204    5.0183 O   0  0  0  0  0  0  0  0  0  0  0  0
   -1.4809    4.0082    4.4777 C   0  0  0  0  0  0  0  0  0  0  0  0
   -0.4577    3.1710    4.8364 C   0  0  0  0  0  0  0  0  0  0  0  0
   -0.3916    2.6817    6.1318 C   0  0  0  0  0  0  0  0  0  0  0  0
    0.6680    1.7771    6.5941 C   0  0  2  0  0  0  0  0  0  0  0  0
    1.5612    2.3484    7.6607 C   0  0  0  0  0  0  0  0  0  0  0  0
    2.6362    1.4944    8.0355 N   0  0  0  0  0  4  0  0  0  0  0  0
    3.1287    1.7463    9.4000 C   0  0  0  0  0  0  0  0  0  0  0  0
    4.3127    0.9184    9.7169 C   0  0  0  0  0  0  0  0  0  0  0  0
    4.4262    0.3930   11.0829 C   0  0  0  0  0  0  0  0  0  0  0  0
    5.1267    1.1610   12.0254 C   0  0  0  0  0  0  0  0  0  0  0  0
    5.2637    0.7921   13.3412 C   0  0  0  0  0  0  0  0  0  0  0  0
    4.6974   -0.3826   13.7860 C   0  0  0  0  0  0  0  0  0  0  0  0
    4.0090   -1.1537   12.8904 C   0  0  0  0  0  0  0  0  0  0  0  0
    3.8797   -0.7639   11.5554 C   0  0  0  0  0  0  0  0  0  0  0  0
    3.1575   -1.6972   10.6692 C   0  0  0  0  0  0  0  0  0  0  0  0
    1.9752    1.4683   10.3174 C   0  0  0  0  0  0  0  0  0  0  0  0
    3.4927    3.2279    9.5338 C   0  0  0  0  0  0  0  0  0  0  0  0
    1.3835    1.3731    5.4681 O   0  0  0  0  0  0  0  0  0  0  0  0
  1  2  2  0
  2  3  1  0
  3  4  1  0
  4  5  1  0
  5  6  2  0
  6  7  1  0
  6  8  1  0
  8  9  1  0
  8 10  2  0
 10 11  1  0
 11 12  2  0
 12 13  1  0
 13 14  1  0
 14 15  1  0
 15 16  1  0
 16 17  1  0
 17 18  1  0
 18 19  2  0
 19 20  1  0
 20 21  2  0
 21 22  1  0
 22 23  2  0
 23 24  1  0
 16 25  1  0
 16 26  1  0
 13 27  1  6
  7  2  1  0
 23 18  1  0
 12  5  1  0
M  CHG  1  15   1
M  END
$$$$
