
     RDKit          3D

 27 29  0  0  0  0  0  0  0  0999 V2000
   -4.0308    3.6585    9.9128 O   0  0  0  0  0  0  0  0  0  0  0  0
   -3.4118    3.1858    8.9247 C   0  0  0  0  0  0  0  0  0  0  0  0
   -2.6912    1.8922    8.9662 C   0  0  0  0  0  0  0  0  0  0  0  0
   -1.4507    2.0568    8.3400 O   0  0  0  0  0  0  0  0  0  0  0  0
   -1.3266    2.6988    7.1213 C   0  0  0  0  0  0  0  0  0  0  0  0
   -2.3111    3.6355    6.8033 C   0  0  0  0  0  0  0  0  0  0  0  0
   -3.3884    3.9072    7.7020 N   0  0  0  0  0  0  0  0  0  0  0  0
   -2.2242    4.2971    5.6009 C   0  0  0  0  0  0  0  0  0  0  0  0
   -3.2008    5.2197    5.2970 O   0  0  0  0  0  0  0  0  0  0  0  0
   -1.1887    4.0327    4.7436 C   0  0  0  0  0  0  0  0  0  0  0  0
   -0.2205    3.1139    5.0519 C   0  0  0  0  0  0  0  0  0  0  0  0
   -0.2801    2.4302    6.2564 C   0  0  0  0  0  0  0  0  0  0  0  0
    0.7136    1.4277    6.6593 C   0  0  2  0  0  0  0  0  0  0  0  0
    1.3729    1.6936    7.9847 C   0  0  0  0  0  0  0  0  0  0  0  0
    2.7317    1.2755    8.0505 N   0  0  0  0  0  4  0  0  0  0  0  0
    3.0556    0.5481    9.2891 C   0  0  0  0  0  0  0  0  0  0  0  0
    2.7270    1.3421   10.4930 C   0  0  0  0  0  0  0  0  0  0  0  0
    3.8209    1.6466   11.4232 C   0  0  0  0  0  0  0  0  0  0  0  0
    4.1694    0.6702   12.3687 C   0  0  0  0  0  0  0  0  0  0  0  0
    5.2006    0.8255   13.2624 C   0  0  0  0  0  0  0  0  0  0  0  0
    5.9460    1.9842   13.2541 C   0  0  0  0  0  0  0  0  0  0  0  0
    5.6297    2.9554   12.3444 C   0  0  0  0  0  0  0  0  0  0  0  0
    4.5772    2.7814   11.4428 C   0  0  0  0  0  0  0  0  0  0  0  0
    4.2961    3.9147   10.5402 C   0  0  0  0  0  0  0  0  0  0  0  0
    4.5153    0.2136    9.2063 C   0  0  0  0  0  0  0  0  0  0  0  0
    2.2702   -0.7664    9.3159 C   0  0  0  0  0  0  0  0  0  0  0  0
    1.6385    1.3259    5.6215 O   0  0  0  0  0  0  0  0  0  0  0  0
  1  2  2  0
  2  3  1  0
  3  4  1  0
  4  5  1  0
  5  6  2  0
  6  7  1  0
  6  8  1  0
  8  9  1  0
  8 10  2  0
 10 11  1  0
 11 12  2  0
 12 13  1  0
 13 14  1  0
 14 15  1  0
 15 16  1  0
 16 17  1  0
 17 18  1  0
 18 19  2  0
 19 20  1  0
 20 21  2  0
 21 22  1  0
 22 23  2  0
 23 24  1  0
 16 25  1  0
 16 26  1  0
 13 27  1  6
  7  2  1  0
 23 18  1  0
 12  5  1  0
M  CHG  1  15   1
M  END
$$$$
