
     RDKit          3D

 27 29  0  0  0  0  0  0  0  0999 V2000
   -4.5439    3.4376    9.8320 O   0  0  0  0  0  0  0  0  0  0  0  0
   -3.8613    3.0242    8.8593 C   0  0  0  0  0  0  0  0  0  0  0  0
   -3.1837    1.7070    8.8497 C   0  0  0  0  0  0  0  0  0  0  0  0
   -1.8927    1.8775    8.3375 O   0  0  0  0  0  0  0  0  0  0  0  0
   -1.6528    2.6104    7.1894 C   0  0  0  0  0  0  0  0  0  0  0  0
   -2.5814    3.6035    6.8744 C   0  0  0  0  0  0  0  0  0  0  0  0
   -3.7191    3.8400    7.7060 N   0  0  0  0  0  0  0  0  0  0  0  0
   -2.3793    4.3558    5.7412 C   0  0  0  0  0  0  0  0  0  0  0  0
   -3.3015    5.3335    5.4395 O   0  0  0  0  0  0  0  0  0  0  0  0
   -1.2863    4.1248    4.9480 C   0  0  0  0  0  0  0  0  0  0  0  0
   -0.3726    3.1509    5.2536 C   0  0  0  0  0  0  0  0  0  0  0  0
   -0.5483    2.3754    6.3893 C   0  0  0  0  0  0  0  0  0  0  0  0
    0.3807    1.3096    6.7840 C   0  0  2  0  0  0  0  0  0  0  0  0
    0.9228    1.4340    8.1813 C   0  0  0  0  0  0  0  0  0  0  0  0
    2.3097    1.1353    8.2938 N   0  0  0  0  0  4  0  0  0  0  0  0
    2.6550    0.4460    9.5483 C   0  0  0  0  0  0  0  0  0  0  0  0
    2.7823    1.3933   10.6771 C   0  0  0  0  0  0  0  0  0  0  0  0
    2.5358    2.8137   10.4009 C   0  0  0  0  0  0  0  0  0  0  0  0
    1.2701    3.3329   10.7129 C   0  0  0  0  0  0  0  0  0  0  0  0
    0.9368    4.6536   10.5369 C   0  0  0  0  0  0  0  0  0  0  0  0
    1.8685    5.5341   10.0318 C   0  0  0  0  0  0  0  0  0  0  0  0
    3.1112    5.0575    9.7171 C   0  0  0  0  0  0  0  0  0  0  0  0
    3.4335    3.7110    9.9018 C   0  0  0  0  0  0  0  0  0  0  0  0
    4.7874    3.2998    9.4826 C   0  0  0  0  0  0  0  0  0  0  0  0
    3.9302   -0.2961    9.2788 C   0  0  0  0  0  0  0  0  0  0  0  0
    1.5672   -0.5837    9.8677 C   0  0  0  0  0  0  0  0  0  0  0  0
    1.3935    1.2722    5.8270 O   0  0  0  0  0  0  0  0  0  0  0  0
  1  2  2  0
  2  3  1  0
  3  4  1  0
  4  5  1  0
  5  6  2  0
  6  7  1  0
  6  8  1  0
  8  9  1  0
  8 10  2  0
 10 11  1  0
 11 12  2  0
 12 13  1  0
 13 14  1  0
 14 15  1  0
 15 16  1  0
 16 17  1  0
 17 18  1  0
 18 19  2  0
 19 20  1  0
 20 21  2  0
 21 22  1  0
 22 23  2  0
 23 24  1  0
 16 25  1  0
 16 26  1  0
 13 27  1  6
  7  2  1  0
 23 18  1  0
 12  5  1  0
M  CHG  1  15   1
M  END
$$$$
