
     RDKit          3D

 27 29  0  0  0  0  0  0  0  0999 V2000
   -3.6682    4.5070   10.2568 O   0  0  0  0  0  0  0  0  0  0  0  0
   -2.9242    3.9627    9.4007 C   0  0  0  0  0  0  0  0  0  0  0  0
   -1.6441    3.3019    9.7460 C   0  0  0  0  0  0  0  0  0  0  0  0
   -0.6797    3.6893    8.8091 O   0  0  0  0  0  0  0  0  0  0  0  0
   -0.9359    3.6807    7.4501 C   0  0  0  0  0  0  0  0  0  0  0  0
   -2.2692    3.8229    7.0628 C   0  0  0  0  0  0  0  0  0  0  0  0
   -3.3076    3.9690    8.0336 N   0  0  0  0  0  0  0  0  0  0  0  0
   -2.5670    3.8204    5.7203 C   0  0  0  0  0  0  0  0  0  0  0  0
   -3.8859    3.9616    5.3489 O   0  0  0  0  0  0  0  0  0  0  0  0
   -1.5671    3.6804    4.7942 C   0  0  0  0  0  0  0  0  0  0  0  0
   -0.2572    3.5404    5.1702 C   0  0  0  0  0  0  0  0  0  0  0  0
    0.0754    3.5389    6.5160 C   0  0  0  0  0  0  0  0  0  0  0  0
    1.4525    3.3889    7.0014 C   0  0  2  0  0  0  0  0  0  0  0  0
    1.7610    2.0504    7.6138 C   0  0  0  0  0  0  0  0  0  0  0  0
    3.0769    1.9453    8.1453 N   0  0  0  0  0  4  0  0  0  0  0  0
    3.4251    0.5781    8.5667 C   0  0  0  0  0  0  0  0  0  0  0  0
    2.8528    0.2501    9.8906 C   0  0  0  0  0  0  0  0  0  0  0  0
    3.5317    0.7898   11.0748 C   0  0  0  0  0  0  0  0  0  0  0  0
    3.4062    2.1630   11.3345 C   0  0  0  0  0  0  0  0  0  0  0  0
    3.9619    2.7729   12.4324 C   0  0  0  0  0  0  0  0  0  0  0  0
    4.6824    2.0268   13.3394 C   0  0  0  0  0  0  0  0  0  0  0  0
    4.8233    0.6853   13.1130 C   0  0  0  0  0  0  0  0  0  0  0  0
    4.2520    0.0810   11.9908 C   0  0  0  0  0  0  0  0  0  0  0  0
    4.5097   -1.3625   11.8237 C   0  0  0  0  0  0  0  0  0  0  0  0
    4.9233    0.5084    8.5588 C   0  0  0  0  0  0  0  0  0  0  0  0
    2.9002   -0.4142    7.5249 C   0  0  0  0  0  0  0  0  0  0  0  0
    1.6938    4.4405    7.8840 O   0  0  0  0  0  0  0  0  0  0  0  0
  1  2  2  0
  2  3  1  0
  3  4  1  0
  4  5  1  0
  5  6  2  0
  6  7  1  0
  6  8  1  0
  8  9  1  0
  8 10  2  0
 10 11  1  0
 11 12  2  0
 12 13  1  0
 13 14  1  0
 14 15  1  0
 15 16  1  0
 16 17  1  0
 17 18  1  0
 18 19  2  0
 19 20  1  0
 20 21  2  0
 21 22  1  0
 22 23  2  0
 23 24  1  0
 16 25  1  0
 16 26  1  0
 13 27  1  1
  7  2  1  0
 23 18  1  0
 12  5  1  0
M  CHG  1  15   1
M  END
$$$$
