
     RDKit          3D

 27 29  0  0  0  0  0  0  0  0999 V2000
   -3.5483    4.0238   10.3649 O   0  0  0  0  0  0  0  0  0  0  0  0
   -3.0794    3.5044    9.3193 C   0  0  0  0  0  0  0  0  0  0  0  0
   -2.4698    2.1547    9.2910 C   0  0  0  0  0  0  0  0  0  0  0  0
   -1.2932    2.2167    8.5362 O   0  0  0  0  0  0  0  0  0  0  0  0
   -1.2452    2.8506    7.3079 C   0  0  0  0  0  0  0  0  0  0  0  0
   -2.1757    3.8680    7.0911 C   0  0  0  0  0  0  0  0  0  0  0  0
   -3.1250    4.2260    8.0973 N   0  0  0  0  0  0  0  0  0  0  0  0
   -2.1613    4.5245    5.8829 C   0  0  0  0  0  0  0  0  0  0  0  0
   -3.0836    5.5271    5.6792 O   0  0  0  0  0  0  0  0  0  0  0  0
   -1.2484    4.1771    4.9221 C   0  0  0  0  0  0  0  0  0  0  0  0
   -0.3336    3.1790    5.1310 C   0  0  0  0  0  0  0  0  0  0  0  0
   -0.3225    2.4982    6.3385 C   0  0  0  0  0  0  0  0  0  0  0  0
    0.6204    1.4142    6.6392 C   0  0  2  0  0  0  0  0  0  0  0  0
    1.4051    1.5977    7.9090 C   0  0  0  0  0  0  0  0  0  0  0  0
    2.5374    0.7429    8.0197 N   0  0  0  0  0  4  0  0  0  0  0  0
    3.0898    0.6850    9.3833 C   0  0  0  0  0  0  0  0  0  0  0  0
    4.1539    1.6919    9.5869 C   0  0  0  0  0  0  0  0  0  0  0  0
    5.2611    1.3361   10.4826 C   0  0  0  0  0  0  0  0  0  0  0  0
    6.3834    0.7082    9.9214 C   0  0  0  0  0  0  0  0  0  0  0  0
    7.4950    0.3657   10.6517 C   0  0  0  0  0  0  0  0  0  0  0  0
    7.5391    0.6390   12.0014 C   0  0  0  0  0  0  0  0  0  0  0  0
    6.4595    1.2497   12.5777 C   0  0  0  0  0  0  0  0  0  0  0  0
    5.3366    1.5908   11.8204 C   0  0  0  0  0  0  0  0  0  0  0  0
    4.2127    2.2014   12.5567 C   0  0  0  0  0  0  0  0  0  0  0  0
    3.5867   -0.7175    9.5725 C   0  0  0  0  0  0  0  0  0  0  0  0
    1.9609    0.9263   10.3898 C   0  0  0  0  0  0  0  0  0  0  0  0
    1.4463    1.2675    5.5259 O   0  0  0  0  0  0  0  0  0  0  0  0
  1  2  2  0
  2  3  1  0
  3  4  1  0
  4  5  1  0
  5  6  2  0
  6  7  1  0
  6  8  1  0
  8  9  1  0
  8 10  2  0
 10 11  1  0
 11 12  2  0
 12 13  1  0
 13 14  1  0
 14 15  1  0
 15 16  1  0
 16 17  1  0
 17 18  1  0
 18 19  2  0
 19 20  1  0
 20 21  2  0
 21 22  1  0
 22 23  2  0
 23 24  1  0
 16 25  1  0
 16 26  1  0
 13 27  1  6
  7  2  1  0
 23 18  1  0
 12  5  1  0
M  CHG  1  15   1
M  END
$$$$
