
     RDKit          3D

 27 29  0  0  0  0  0  0  0  0999 V2000
   -3.7862    4.1774    9.7905 O   0  0  0  0  0  0  0  0  0  0  0  0
   -3.2272    3.5703    8.8409 C   0  0  0  0  0  0  0  0  0  0  0  0
   -2.6507    2.2126    8.9779 C   0  0  0  0  0  0  0  0  0  0  0  0
   -1.4030    2.1961    8.3447 O   0  0  0  0  0  0  0  0  0  0  0  0
   -1.2164    2.7311    7.0831 C   0  0  0  0  0  0  0  0  0  0  0  0
   -2.0953    3.7436    6.6955 C   0  0  0  0  0  0  0  0  0  0  0  0
   -3.1321    4.1947    7.5693 N   0  0  0  0  0  0  0  0  0  0  0  0
   -1.9436    4.3033    5.4486 C   0  0  0  0  0  0  0  0  0  0  0  0
   -2.8161    5.3019    5.0761 O   0  0  0  0  0  0  0  0  0  0  0  0
   -0.9473    3.8669    4.6154 C   0  0  0  0  0  0  0  0  0  0  0  0
   -0.0826    2.8733    4.9920 C   0  0  0  0  0  0  0  0  0  0  0  0
   -0.2096    2.2889    6.2427 C   0  0  0  0  0  0  0  0  0  0  0  0
    0.6717    1.2164    6.7198 C   0  0  2  0  0  0  0  0  0  0  0  0
    1.6485    1.6326    7.7849 C   0  0  0  0  0  0  0  0  0  0  0  0
    2.4756    0.5757    8.2582 N   0  0  0  0  0  4  0  0  0  0  0  0
    3.0466    0.8373    9.5899 C   0  0  0  0  0  0  0  0  0  0  0  0
    3.9176   -0.2701   10.0402 C   0  0  0  0  0  0  0  0  0  0  0  0
    5.2180    0.0842   10.6217 C   0  0  0  0  0  0  0  0  0  0  0  0
    5.2981    0.2209   12.0158 C   0  0  0  0  0  0  0  0  0  0  0  0
    6.4677    0.5093   12.6754 C   0  0  0  0  0  0  0  0  0  0  0  0
    7.6338    0.6777   11.9610 C   0  0  0  0  0  0  0  0  0  0  0  0
    7.5874    0.5516   10.5999 C   0  0  0  0  0  0  0  0  0  0  0  0
    6.3891    0.2586    9.9448 C   0  0  0  0  0  0  0  0  0  0  0  0
    6.4488    0.1939    8.4716 C   0  0  0  0  0  0  0  0  0  0  0  0
    1.8805    1.0562   10.5076 C   0  0  0  0  0  0  0  0  0  0  0  0
    3.8581    2.1352    9.5389 C   0  0  0  0  0  0  0  0  0  0  0  0
    1.3081    0.6798    5.6017 O   0  0  0  0  0  0  0  0  0  0  0  0
  1  2  2  0
  2  3  1  0
  3  4  1  0
  4  5  1  0
  5  6  2  0
  6  7  1  0
  6  8  1  0
  8  9  1  0
  8 10  2  0
 10 11  1  0
 11 12  2  0
 12 13  1  0
 13 14  1  0
 14 15  1  0
 15 16  1  0
 16 17  1  0
 17 18  1  0
 18 19  2  0
 19 20  1  0
 20 21  2  0
 21 22  1  0
 22 23  2  0
 23 24  1  0
 16 25  1  0
 16 26  1  0
 13 27  1  6
  7  2  1  0
 23 18  1  0
 12  5  1  0
M  CHG  1  15   1
M  END
$$$$
