
     RDKit          3D

 27 29  0  0  0  0  0  0  0  0999 V2000
   -4.0037    4.3088    9.7428 O   0  0  0  0  0  0  0  0  0  0  0  0
   -3.3400    3.6245    8.9218 C   0  0  0  0  0  0  0  0  0  0  0  0
   -2.5971    2.4013    9.3038 C   0  0  0  0  0  0  0  0  0  0  0  0
   -1.3378    2.4404    8.6950 O   0  0  0  0  0  0  0  0  0  0  0  0
   -1.1812    2.7657    7.3599 C   0  0  0  0  0  0  0  0  0  0  0  0
   -2.1710    3.5679    6.7901 C   0  0  0  0  0  0  0  0  0  0  0  0
   -3.2854    4.0229    7.5601 N   0  0  0  0  0  0  0  0  0  0  0  0
   -2.0526    3.9151    5.4648 C   0  0  0  0  0  0  0  0  0  0  0  0
   -3.0347    4.7073    4.9123 O   0  0  0  0  0  0  0  0  0  0  0  0
   -0.9815    3.4761    4.7317 C   0  0  0  0  0  0  0  0  0  0  0  0
   -0.0080    2.6885    5.2872 C   0  0  0  0  0  0  0  0  0  0  0  0
   -0.0988    2.3212    6.6209 C   0  0  0  0  0  0  0  0  0  0  0  0
    0.8982    1.4764    7.2895 C   0  0  2  0  0  0  0  0  0  0  0  0
    2.1432    2.1988    7.7257 C   0  0  0  0  0  0  0  0  0  0  0  0
    3.0653    1.3846    8.4412 N   0  0  0  0  0  4  0  0  0  0  0  0
    3.9572    2.1556    9.3234 C   0  0  0  0  0  0  0  0  0  0  0  0
    4.8023    1.2723   10.1560 C   0  0  0  0  0  0  0  0  0  0  0  0
    4.1431    0.1562   10.8448 C   0  0  0  0  0  0  0  0  0  0  0  0
    2.7735    0.2754   11.1258 C   0  0  0  0  0  0  0  0  0  0  0  0
    2.0421   -0.7184   11.7287 C   0  0  0  0  0  0  0  0  0  0  0  0
    2.6548   -1.8996   12.0861 C   0  0  0  0  0  0  0  0  0  0  0  0
    3.9897   -2.0453   11.8261 C   0  0  0  0  0  0  0  0  0  0  0  0
    4.7189   -1.0241   11.2126 C   0  0  0  0  0  0  0  0  0  0  0  0
    6.1615   -1.2731   11.0254 C   0  0  0  0  0  0  0  0  0  0  0  0
    3.0673    3.0378   10.1477 C   0  0  0  0  0  0  0  0  0  0  0  0
    4.8516    3.0556    8.4657 C   0  0  0  0  0  0  0  0  0  0  0  0
    1.1784    0.4142    6.4316 O   0  0  0  0  0  0  0  0  0  0  0  0
  1  2  2  0
  2  3  1  0
  3  4  1  0
  4  5  1  0
  5  6  2  0
  6  7  1  0
  6  8  1  0
  8  9  1  0
  8 10  2  0
 10 11  1  0
 11 12  2  0
 12 13  1  0
 13 14  1  0
 14 15  1  0
 15 16  1  0
 16 17  1  0
 17 18  1  0
 18 19  2  0
 19 20  1  0
 20 21  2  0
 21 22  1  0
 22 23  2  0
 23 24  1  0
 16 25  1  0
 16 26  1  0
 13 27  1  6
  7  2  1  0
 23 18  1  0
 12  5  1  0
M  CHG  1  15   1
M  END
$$$$
