
     RDKit          3D

 27 29  0  0  0  0  0  0  0  0999 V2000
   -3.8540    4.5261    9.7120 O   0  0  0  0  0  0  0  0  0  0  0  0
   -3.2239    3.8385    8.8676 C   0  0  0  0  0  0  0  0  0  0  0  0
   -2.4720    2.6127    9.2231 C   0  0  0  0  0  0  0  0  0  0  0  0
   -1.2360    2.6465    8.5680 O   0  0  0  0  0  0  0  0  0  0  0  0
   -1.1277    2.9700    7.2277 C   0  0  0  0  0  0  0  0  0  0  0  0
   -2.1349    3.7755    6.6941 C   0  0  0  0  0  0  0  0  0  0  0  0
   -3.2183    4.2355    7.5044 N   0  0  0  0  0  0  0  0  0  0  0  0
   -2.0644    4.1211    5.3650 C   0  0  0  0  0  0  0  0  0  0  0  0
   -3.0632    4.9166    4.8485 O   0  0  0  0  0  0  0  0  0  0  0  0
   -1.0229    3.6773    4.5932 C   0  0  0  0  0  0  0  0  0  0  0  0
   -0.0325    2.8865    5.1131 C   0  0  0  0  0  0  0  0  0  0  0  0
   -0.0752    2.5206    6.4496 C   0  0  0  0  0  0  0  0  0  0  0  0
    0.9427    1.6726    7.0816 C   0  0  2  0  0  0  0  0  0  0  0  0
    1.9201    2.4092    7.9557 C   0  0  0  0  0  0  0  0  0  0  0  0
    2.6308    1.5739    8.8626 N   0  0  0  0  0  4  0  0  0  0  0  0
    3.4114    2.3289    9.8569 C   0  0  0  0  0  0  0  0  0  0  0  0
    3.5698    1.5729   11.1183 C   0  0  0  0  0  0  0  0  0  0  0  0
    4.0368    0.1846   11.0221 C   0  0  0  0  0  0  0  0  0  0  0  0
    5.3924   -0.0332   10.7325 C   0  0  0  0  0  0  0  0  0  0  0  0
    5.9518   -1.2853   10.6577 C   0  0  0  0  0  0  0  0  0  0  0  0
    5.1698   -2.3992   10.8725 C   0  0  0  0  0  0  0  0  0  0  0  0
    3.8439   -2.2191   11.1559 C   0  0  0  0  0  0  0  0  0  0  0  0
    3.2909   -0.9386   11.2276 C   0  0  0  0  0  0  0  0  0  0  0  0
    1.8408   -0.8670   11.4924 C   0  0  0  0  0  0  0  0  0  0  0  0
    2.6877    3.6274   10.0563 C   0  0  0  0  0  0  0  0  0  0  0  0
    4.7926    2.6421    9.2740 C   0  0  0  0  0  0  0  0  0  0  0  0
    1.5771    0.9637    6.0629 O   0  0  0  0  0  0  0  0  0  0  0  0
  1  2  2  0
  2  3  1  0
  3  4  1  0
  4  5  1  0
  5  6  2  0
  6  7  1  0
  6  8  1  0
  8  9  1  0
  8 10  2  0
 10 11  1  0
 11 12  2  0
 12 13  1  0
 13 14  1  0
 14 15  1  0
 15 16  1  0
 16 17  1  0
 17 18  1  0
 18 19  2  0
 19 20  1  0
 20 21  2  0
 21 22  1  0
 22 23  2  0
 23 24  1  0
 16 25  1  0
 16 26  1  0
 13 27  1  6
  7  2  1  0
 23 18  1  0
 12  5  1  0
M  CHG  1  15   1
M  END
$$$$
