
     RDKit          3D

 27 29  0  0  0  0  0  0  0  0999 V2000
   -3.8680    3.8456    9.6607 O   0  0  0  0  0  0  0  0  0  0  0  0
   -3.2594    3.3386    8.6832 C   0  0  0  0  0  0  0  0  0  0  0  0
   -2.6436    1.9921    8.7251 C   0  0  0  0  0  0  0  0  0  0  0  0
   -1.3764    2.0668    8.1363 O   0  0  0  0  0  0  0  0  0  0  0  0
   -1.1672    2.7129    6.9315 C   0  0  0  0  0  0  0  0  0  0  0  0
   -2.0659    3.7280    6.6004 C   0  0  0  0  0  0  0  0  0  0  0  0
   -3.1443    4.0718    7.4728 N   0  0  0  0  0  0  0  0  0  0  0  0
   -1.8928    4.3963    5.4111 C   0  0  0  0  0  0  0  0  0  0  0  0
   -2.7852    5.3966    5.0942 O   0  0  0  0  0  0  0  0  0  0  0  0
   -0.8567    4.0625    4.5791 C   0  0  0  0  0  0  0  0  0  0  0  0
    0.0274    3.0667    4.9003 C   0  0  0  0  0  0  0  0  0  0  0  0
   -0.1203    2.3742    6.0921 C   0  0  0  0  0  0  0  0  0  0  0  0
    0.7800    1.2917    6.5073 C   0  0  2  0  0  0  0  0  0  0  0  0
    1.7670    1.6704    7.5770 C   0  0  0  0  0  0  0  0  0  0  0  0
    1.9881    0.6539    8.5481 N   0  0  0  0  0  4  0  0  0  0  0  0
    2.9427    1.0507    9.5966 C   0  0  0  0  0  0  0  0  0  0  0  0
    4.2930    1.2949    9.0446 C   0  0  0  0  0  0  0  0  0  0  0  0
    5.4291    1.2091    9.9701 C   0  0  0  0  0  0  0  0  0  0  0  0
    5.7393    2.3435   10.7355 C   0  0  0  0  0  0  0  0  0  0  0  0
    6.7525    2.3692   11.6622 C   0  0  0  0  0  0  0  0  0  0  0  0
    7.5177    1.2429   11.8724 C   0  0  0  0  0  0  0  0  0  0  0  0
    7.2402    0.1213   11.1405 C   0  0  0  0  0  0  0  0  0  0  0  0
    6.2063    0.1125   10.2014 C   0  0  0  0  0  0  0  0  0  0  0  0
    6.0293   -1.1371    9.4363 C   0  0  0  0  0  0  0  0  0  0  0  0
    2.9313   -0.0544   10.6106 C   0  0  0  0  0  0  0  0  0  0  0  0
    2.4337    2.3238   10.2791 C   0  0  0  0  0  0  0  0  0  0  0  0
    1.4065    0.8145    5.3572 O   0  0  0  0  0  0  0  0  0  0  0  0
  1  2  2  0
  2  3  1  0
  3  4  1  0
  4  5  1  0
  5  6  2  0
  6  7  1  0
  6  8  1  0
  8  9  1  0
  8 10  2  0
 10 11  1  0
 11 12  2  0
 12 13  1  0
 13 14  1  0
 14 15  1  0
 15 16  1  0
 16 17  1  0
 17 18  1  0
 18 19  2  0
 19 20  1  0
 20 21  2  0
 21 22  1  0
 22 23  2  0
 23 24  1  0
 16 25  1  0
 16 26  1  0
 13 27  1  6
  7  2  1  0
 23 18  1  0
 12  5  1  0
M  CHG  1  15   1
M  END
$$$$
