
     RDKit          3D

 27 29  0  0  0  0  0  0  0  0999 V2000
   -4.0276    4.3243    9.7834 O   0  0  0  0  0  0  0  0  0  0  0  0
   -3.4556    3.6643    8.8779 C   0  0  0  0  0  0  0  0  0  0  0  0
   -2.7874    2.3654    9.1243 C   0  0  0  0  0  0  0  0  0  0  0  0
   -1.5588    2.3660    8.4546 O   0  0  0  0  0  0  0  0  0  0  0  0
   -1.4418    2.7868    7.1423 C   0  0  0  0  0  0  0  0  0  0  0  0
   -2.3956    3.6994    6.6895 C   0  0  0  0  0  0  0  0  0  0  0  0
   -3.4361    4.1670    7.5502 N   0  0  0  0  0  0  0  0  0  0  0  0
   -2.3147    4.1439    5.3907 C   0  0  0  0  0  0  0  0  0  0  0  0
   -3.2608    5.0447    4.9539 O   0  0  0  0  0  0  0  0  0  0  0  0
   -1.3146    3.6924    4.5702 C   0  0  0  0  0  0  0  0  0  0  0  0
   -0.3765    2.7965    5.0108 C   0  0  0  0  0  0  0  0  0  0  0  0
   -0.4311    2.3294    6.3149 C   0  0  0  0  0  0  0  0  0  0  0  0
    0.5315    1.3659    6.8625 C   0  0  2  0  0  0  0  0  0  0  0  0
    1.3787    1.8939    7.9874 C   0  0  0  0  0  0  0  0  0  0  0  0
    2.2433    0.9234    8.5670 N   0  0  0  0  0  4  0  0  0  0  0  0
    2.5226    1.1718    9.9912 C   0  0  0  0  0  0  0  0  0  0  0  0
    3.4723    0.1820   10.5443 C   0  0  0  0  0  0  0  0  0  0  0  0
    4.8159    0.1295    9.9554 C   0  0  0  0  0  0  0  0  0  0  0  0
    4.9774   -0.5705    8.7501 C   0  0  0  0  0  0  0  0  0  0  0  0
    6.1765   -0.6538    8.0858 C   0  0  0  0  0  0  0  0  0  0  0  0
    7.2912   -0.0306    8.6029 C   0  0  0  0  0  0  0  0  0  0  0  0
    7.1656    0.6589    9.7774 C   0  0  0  0  0  0  0  0  0  0  0  0
    5.9386    0.7331   10.4406 C   0  0  0  0  0  0  0  0  0  0  0  0
    5.9323    1.4628   11.7234 C   0  0  0  0  0  0  0  0  0  0  0  0
    1.1947    1.1406   10.6879 C   0  0  0  0  0  0  0  0  0  0  0  0
    3.1055    2.5794   10.1474 C   0  0  0  0  0  0  0  0  0  0  0  0
    1.3005    0.9024    5.7963 O   0  0  0  0  0  0  0  0  0  0  0  0
  1  2  2  0
  2  3  1  0
  3  4  1  0
  4  5  1  0
  5  6  2  0
  6  7  1  0
  6  8  1  0
  8  9  1  0
  8 10  2  0
 10 11  1  0
 11 12  2  0
 12 13  1  0
 13 14  1  0
 14 15  1  0
 15 16  1  0
 16 17  1  0
 17 18  1  0
 18 19  2  0
 19 20  1  0
 20 21  2  0
 21 22  1  0
 22 23  2  0
 23 24  1  0
 16 25  1  0
 16 26  1  0
 13 27  1  6
  7  2  1  0
 23 18  1  0
 12  5  1  0
M  CHG  1  15   1
M  END
$$$$
