
     RDKit          3D

 27 29  0  0  0  0  0  0  0  0999 V2000
   -3.6454    4.5410   10.0604 O   0  0  0  0  0  0  0  0  0  0  0  0
   -3.0994    3.8619    9.1529 C   0  0  0  0  0  0  0  0  0  0  0  0
   -2.3470    2.6141    9.4192 C   0  0  0  0  0  0  0  0  0  0  0  0
   -1.1671    2.6401    8.6674 O   0  0  0  0  0  0  0  0  0  0  0  0
   -1.1600    2.9933    7.3302 C   0  0  0  0  0  0  0  0  0  0  0  0
   -2.1898    3.8302    6.8977 C   0  0  0  0  0  0  0  0  0  0  0  0
   -3.1949    4.2912    7.8028 N   0  0  0  0  0  0  0  0  0  0  0  0
   -2.2190    4.2060    5.5752 C   0  0  0  0  0  0  0  0  0  0  0  0
   -3.2394    5.0323    5.1588 O   0  0  0  0  0  0  0  0  0  0  0  0
   -1.2523    3.7611    4.7123 C   0  0  0  0  0  0  0  0  0  0  0  0
   -0.2400    2.9395    5.1328 C   0  0  0  0  0  0  0  0  0  0  0  0
   -0.1829    2.5428    6.4599 C   0  0  0  0  0  0  0  0  0  0  0  0
    0.8647    1.6610    6.9888 C   0  0  2  0  0  0  0  0  0  0  0  0
    1.8625    2.3386    7.8870 C   0  0  0  0  0  0  0  0  0  0  0  0
    2.8122    1.4537    8.4705 N   0  0  0  0  0  4  0  0  0  0  0  0
    3.4637    2.0094    9.6683 C   0  0  0  0  0  0  0  0  0  0  0  0
    4.3569    1.0230   10.3139 C   0  0  0  0  0  0  0  0  0  0  0  0
    3.7748    0.1537   11.3436 C   0  0  0  0  0  0  0  0  0  0  0  0
    2.9443   -0.8963   10.9233 C   0  0  0  0  0  0  0  0  0  0  0  0
    2.3768   -1.7972   11.7907 C   0  0  0  0  0  0  0  0  0  0  0  0
    2.6160   -1.6902   13.1434 C   0  0  0  0  0  0  0  0  0  0  0  0
    3.4208   -0.6759   13.5840 C   0  0  0  0  0  0  0  0  0  0  0  0
    3.9897    0.2322   12.6881 C   0  0  0  0  0  0  0  0  0  0  0  0
    4.8009    1.3134   13.2805 C   0  0  0  0  0  0  0  0  0  0  0  0
    2.3563    2.4569   10.5754 C   0  0  0  0  0  0  0  0  0  0  0  0
    4.2749    3.2451    9.2674 C   0  0  0  0  0  0  0  0  0  0  0  0
    1.4725    1.0441    5.8965 O   0  0  0  0  0  0  0  0  0  0  0  0
  1  2  2  0
  2  3  1  0
  3  4  1  0
  4  5  1  0
  5  6  2  0
  6  7  1  0
  6  8  1  0
  8  9  1  0
  8 10  2  0
 10 11  1  0
 11 12  2  0
 12 13  1  0
 13 14  1  0
 14 15  1  0
 15 16  1  0
 16 17  1  0
 17 18  1  0
 18 19  2  0
 19 20  1  0
 20 21  2  0
 21 22  1  0
 22 23  2  0
 23 24  1  0
 16 25  1  0
 16 26  1  0
 13 27  1  6
  7  2  1  0
 23 18  1  0
 12  5  1  0
M  CHG  1  15   1
M  END
$$$$
