
     RDKit          3D

 27 29  0  0  0  0  0  0  0  0999 V2000
   -3.8221    4.4473    9.6854 O   0  0  0  0  0  0  0  0  0  0  0  0
   -3.2435    3.7598    8.8049 C   0  0  0  0  0  0  0  0  0  0  0  0
   -2.4631    2.5397    9.1160 C   0  0  0  0  0  0  0  0  0  0  0  0
   -1.2720    2.5777    8.3827 O   0  0  0  0  0  0  0  0  0  0  0  0
   -1.2518    2.8962    7.0370 C   0  0  0  0  0  0  0  0  0  0  0  0
   -2.2958    3.6938    6.5662 C   0  0  0  0  0  0  0  0  0  0  0  0
   -3.3277    4.1512    7.4426 N   0  0  0  0  0  0  0  0  0  0  0  0
   -2.3128    4.0344    5.2340 C   0  0  0  0  0  0  0  0  0  0  0  0
   -3.3474    4.8221    4.7797 O   0  0  0  0  0  0  0  0  0  0  0  0
   -1.3204    3.5932    4.3986 C   0  0  0  0  0  0  0  0  0  0  0  0
   -0.2941    2.8101    4.8568 C   0  0  0  0  0  0  0  0  0  0  0  0
   -0.2488    2.4495    6.1946 C   0  0  0  0  0  0  0  0  0  0  0  0
    0.8125    1.6099    6.7632 C   0  0  2  0  0  0  0  0  0  0  0  0
    1.6258    2.2698    7.8425 C   0  0  0  0  0  0  0  0  0  0  0  0
    2.8540    1.6102    8.1283 N   0  0  0  0  0  4  0  0  0  0  0  0
    3.4701    2.0521    9.3905 C   0  0  0  0  0  0  0  0  0  0  0  0
    2.6095    1.7515   10.5553 C   0  0  0  0  0  0  0  0  0  0  0  0
    2.7524    0.4312   11.1806 C   0  0  0  0  0  0  0  0  0  0  0  0
    3.9609   -0.2566   10.9929 C   0  0  0  0  0  0  0  0  0  0  0  0
    4.2249   -1.4786   11.5614 C   0  0  0  0  0  0  0  0  0  0  0  0
    3.2773   -2.0825   12.3587 C   0  0  0  0  0  0  0  0  0  0  0  0
    2.0883   -1.4370   12.5598 C   0  0  0  0  0  0  0  0  0  0  0  0
    1.8359   -0.1947   11.9734 C   0  0  0  0  0  0  0  0  0  0  0  0
    0.5015    0.3853   12.2203 C   0  0  0  0  0  0  0  0  0  0  0  0
    3.7293    3.5212    9.2358 C   0  0  0  0  0  0  0  0  0  0  0  0
    4.8202    1.3491    9.5600 C   0  0  0  0  0  0  0  0  0  0  0  0
    1.6024    1.1712    5.7017 O   0  0  0  0  0  0  0  0  0  0  0  0
  1  2  2  0
  2  3  1  0
  3  4  1  0
  4  5  1  0
  5  6  2  0
  6  7  1  0
  6  8  1  0
  8  9  1  0
  8 10  2  0
 10 11  1  0
 11 12  2  0
 12 13  1  0
 13 14  1  0
 14 15  1  0
 15 16  1  0
 16 17  1  0
 17 18  1  0
 18 19  2  0
 19 20  1  0
 20 21  2  0
 21 22  1  0
 22 23  2  0
 23 24  1  0
 16 25  1  0
 16 26  1  0
 13 27  1  6
  7  2  1  0
 23 18  1  0
 12  5  1  0
M  CHG  1  15   1
M  END
$$$$
