
     RDKit          3D

 27 29  0  0  0  0  0  0  0  0999 V2000
   -3.3948    4.3260    9.8530 O   0  0  0  0  0  0  0  0  0  0  0  0
   -2.7967    3.6511    8.9757 C   0  0  0  0  0  0  0  0  0  0  0  0
   -1.8285    2.5786    9.3021 C   0  0  0  0  0  0  0  0  0  0  0  0
   -0.7175    2.7153    8.4625 O   0  0  0  0  0  0  0  0  0  0  0  0
   -0.8508    2.9187    7.1010 C   0  0  0  0  0  0  0  0  0  0  0  0
   -2.0319    3.5250    6.6707 C   0  0  0  0  0  0  0  0  0  0  0  0
   -3.0446    3.9109    7.6020 N   0  0  0  0  0  0  0  0  0  0  0  0
   -2.2038    3.7461    5.3244 C   0  0  0  0  0  0  0  0  0  0  0  0
   -3.3729    4.3454    4.9103 O   0  0  0  0  0  0  0  0  0  0  0  0
   -1.2290    3.3743    4.4362 C   0  0  0  0  0  0  0  0  0  0  0  0
   -0.0684    2.7789    4.8546 C   0  0  0  0  0  0  0  0  0  0  0  0
    0.1348    2.5422    6.2053 C   0  0  0  0  0  0  0  0  0  0  0  0
    1.3468    1.9051    6.7343 C   0  0  2  0  0  0  0  0  0  0  0  0
    1.5302    2.0399    8.2209 C   0  0  0  0  0  0  0  0  0  0  0  0
    2.4993    1.1532    8.7684 N   0  0  0  0  0  4  0  0  0  0  0  0
    2.4885    1.1188   10.2403 C   0  0  0  0  0  0  0  0  0  0  0  0
    3.5200    0.2034   10.7749 C   0  0  0  0  0  0  0  0  0  0  0  0
    4.5830   -0.2283    9.8593 C   0  0  0  0  0  0  0  0  0  0  0  0
    4.2059   -0.7114    8.5970 C   0  0  0  0  0  0  0  0  0  0  0  0
    5.1120   -1.1052    7.6430 C   0  0  0  0  0  0  0  0  0  0  0  0
    6.4620   -1.0339    7.9092 C   0  0  0  0  0  0  0  0  0  0  0  0
    6.8609   -0.5680    9.1316 C   0  0  0  0  0  0  0  0  0  0  0  0
    5.9259   -0.1721   10.0909 C   0  0  0  0  0  0  0  0  0  0  0  0
    6.4695    0.2677   11.3906 C   0  0  0  0  0  0  0  0  0  0  0  0
    1.1011    0.7103   10.6375 C   0  0  0  0  0  0  0  0  0  0  0  0
    2.7362    2.5327   10.7744 C   0  0  0  0  0  0  0  0  0  0  0  0
    2.4272    2.4216    6.0209 O   0  0  0  0  0  0  0  0  0  0  0  0
  1  2  2  0
  2  3  1  0
  3  4  1  0
  4  5  1  0
  5  6  2  0
  6  7  1  0
  6  8  1  0
  8  9  1  0
  8 10  2  0
 10 11  1  0
 11 12  2  0
 12 13  1  0
 13 14  1  0
 14 15  1  0
 15 16  1  0
 16 17  1  0
 17 18  1  0
 18 19  2  0
 19 20  1  0
 20 21  2  0
 21 22  1  0
 22 23  2  0
 23 24  1  0
 16 25  1  0
 16 26  1  0
 13 27  1  6
  7  2  1  0
 23 18  1  0
 12  5  1  0
M  CHG  1  15   1
M  END
$$$$
