
     RDKit          3D

 24 27  0  0  0  0  0  0  0  0999 V2000
   58.5354   46.6403  102.0601 C   0  0  0  0  0  0  0  0  0  0  0  0
   57.0937   46.2816  102.3668 C   0  0  0  0  0  0  0  0  0  0  0  0
   56.3784   46.1672  101.0913 N   0  0  0  0  0  0  0  0  0  0  0  0
   56.0163   44.8415  100.6674 C   0  0  0  0  0  0  0  0  0  0  0  0
   57.2214   44.1231  100.0549 C   0  0  0  0  0  0  0  0  0  0  0  0
   56.0702   47.3103  100.3456 C   0  0  0  0  0  0  0  0  0  0  0  0
   56.4659   48.4336  100.7867 O   0  0  0  0  0  0  0  0  0  0  0  0
   55.3130   47.3529   99.0676 C   0  0  0  0  0  0  0  0  0  0  0  0
   56.0941   46.9341   97.8972 C   0  0  0  0  0  0  0  0  0  0  0  0
   56.1132   47.8704   96.8174 N   0  0  0  0  0  0  0  0  0  0  0  0
   54.7720   48.3513   96.4979 C   0  0  0  0  0  0  0  0  0  0  0  0
   54.8167   49.0768   95.2170 C   0  0  0  0  0  0  0  0  0  0  0  0
   54.0952   50.3694   95.1695 C   0  0  0  0  0  0  0  0  0  0  0  0
   53.7722   51.2620   94.1497 C   0  0  0  0  0  0  0  0  0  0  0  0
   53.0807   52.3193   94.6787 N   0  0  0  0  0  0  0  0  0  0  0  0
   52.9584   52.1190   96.0027 C   0  0  0  0  0  0  0  0  0  0  0  0
   52.3913   52.7737   97.0933 C   0  0  0  0  0  0  0  0  0  0  0  0
   52.4636   52.2367   98.3769 C   0  0  0  0  0  0  0  0  0  0  0  0
   53.0984   51.0292   98.6448 C   0  0  0  0  0  0  0  0  0  0  0  0
   53.6491   50.4035   97.5569 C   0  0  0  0  0  0  0  0  0  0  0  0
   53.5751   50.9341   96.3001 C   0  0  0  0  0  0  0  0  0  0  0  0
   54.3497   49.1131   97.7009 C   0  0  0  0  0  0  0  0  0  0  0  0
   54.6237   48.6286   98.8800 C   0  0  0  0  0  0  0  0  0  0  0  0
   56.8384   47.4289   95.6691 C   0  0  0  0  0  0  0  0  0  0  0  0
  1  2  1  0
  2  3  1  0
  3  4  1  0
  4  5  1  0
  3  6  1  0
  6  7  2  0
  6  8  1  0
  8  9  1  0
  9 10  1  0
 10 11  1  0
 11 12  1  0
 12 13  1  0
 13 14  2  0
 14 15  1  0
 15 16  1  0
 16 17  2  0
 17 18  1  0
 18 19  2  0
 19 20  1  0
 20 21  2  0
 20 22  1  0
 22 23  2  0
 10 24  1  0
 23  8  1  0
 22 11  1  0
 21 13  1  0
 21 16  1  0
M  END
$$$$
