
     RDKit          3D

 24 27  0  0  0  0  0  0  0  0999 V2000
   59.7597   44.8448   96.9609 C   0  0  0  0  0  0  0  0  0  0  0  0
   59.3102   46.1413   96.3141 C   0  0  0  0  0  0  0  0  0  0  0  0
   58.0387   45.8842   95.6295 N   0  0  0  0  0  0  0  0  0  0  0  0
   58.0107   44.7822   94.7058 C   0  0  0  0  0  0  0  0  0  0  0  0
   58.1976   45.2775   93.2694 C   0  0  0  0  0  0  0  0  0  0  0  0
   56.9201   46.6845   95.8861 C   0  0  0  0  0  0  0  0  0  0  0  0
   55.8497   46.4330   95.2506 O   0  0  0  0  0  0  0  0  0  0  0  0
   56.8482   47.8212   96.8408 C   0  0  0  0  0  0  0  0  0  0  0  0
   56.6863   47.4140   98.2420 C   0  0  0  0  0  0  0  0  0  0  0  0
   55.5787   48.0108   98.9202 N   0  0  0  0  0  0  0  0  0  0  0  0
   55.5335   49.4551   98.7100 C   0  0  0  0  0  0  0  0  0  0  0  0
   54.5619   50.0443   99.6470 C   0  0  0  0  0  0  0  0  0  0  0  0
   53.6267   51.0435   99.0805 C   0  0  0  0  0  0  0  0  0  0  0  0
   52.6915   51.9170   99.6314 C   0  0  0  0  0  0  0  0  0  0  0  0
   52.0934   52.6291   98.6258 N   0  0  0  0  0  0  0  0  0  0  0  0
   52.6246   52.2297   97.4569 C   0  0  0  0  0  0  0  0  0  0  0  0
   52.4792   52.5318   96.1051 C   0  0  0  0  0  0  0  0  0  0  0  0
   53.2395   51.8844   95.1335 C   0  0  0  0  0  0  0  0  0  0  0  0
   54.1784   50.9090   95.4495 C   0  0  0  0  0  0  0  0  0  0  0  0
   54.3038   50.6283   96.7851 C   0  0  0  0  0  0  0  0  0  0  0  0
   53.5561   51.2662   97.7341 C   0  0  0  0  0  0  0  0  0  0  0  0
   55.2665   49.6151   97.2578 C   0  0  0  0  0  0  0  0  0  0  0  0
   55.8848   48.8354   96.4154 C   0  0  0  0  0  0  0  0  0  0  0  0
   55.4622   47.6407  100.2945 C   0  0  0  0  0  0  0  0  0  0  0  0
  1  2  1  0
  2  3  1  0
  3  4  1  0
  4  5  1  0
  3  6  1  0
  6  7  2  0
  6  8  1  0
  8  9  1  0
  9 10  1  0
 10 11  1  0
 11 12  1  0
 12 13  1  0
 13 14  2  0
 14 15  1  0
 15 16  1  0
 16 17  2  0
 17 18  1  0
 18 19  2  0
 19 20  1  0
 20 21  2  0
 20 22  1  0
 22 23  2  0
 10 24  1  0
 23  8  1  0
 22 11  1  0
 21 13  1  0
 21 16  1  0
M  END
$$$$
