
     RDKit          3D

 24 27  0  0  0  0  0  0  0  0999 V2000
   55.6614   43.8329  100.4507 C   0  0  0  0  0  0  0  0  0  0  0  0
   56.7910   44.6665   99.8757 C   0  0  0  0  0  0  0  0  0  0  0  0
   56.8252   45.9393  100.6040 N   0  0  0  0  0  0  0  0  0  0  0  0
   57.5734   45.9641  101.8320 C   0  0  0  0  0  0  0  0  0  0  0  0
   58.9879   46.4976  101.5911 C   0  0  0  0  0  0  0  0  0  0  0  0
   56.1582   47.0622  100.1021 C   0  0  0  0  0  0  0  0  0  0  0  0
   56.2300   48.1431  100.7650 O   0  0  0  0  0  0  0  0  0  0  0  0
   55.3572   47.1275   98.8520 C   0  0  0  0  0  0  0  0  0  0  0  0
   56.0773   46.6693   97.6575 C   0  0  0  0  0  0  0  0  0  0  0  0
   56.0952   47.5968   96.5702 N   0  0  0  0  0  0  0  0  0  0  0  0
   54.7640   48.1305   96.2957 C   0  0  0  0  0  0  0  0  0  0  0  0
   54.7916   48.8451   95.0082 C   0  0  0  0  0  0  0  0  0  0  0  0
   54.1224   50.1660   94.9764 C   0  0  0  0  0  0  0  0  0  0  0  0
   53.7991   51.0644   93.9618 C   0  0  0  0  0  0  0  0  0  0  0  0
   53.1713   52.1528   94.5069 N   0  0  0  0  0  0  0  0  0  0  0  0
   53.0893   51.9664   95.8361 C   0  0  0  0  0  0  0  0  0  0  0  0
   52.5897   52.6511   96.9412 C   0  0  0  0  0  0  0  0  0  0  0  0
   52.6868   52.1199   98.2256 C   0  0  0  0  0  0  0  0  0  0  0  0
   53.2810   50.8892   98.4801 C   0  0  0  0  0  0  0  0  0  0  0  0
   53.7655   50.2341   97.3781 C   0  0  0  0  0  0  0  0  0  0  0  0
   53.6675   50.7590   96.1205 C   0  0  0  0  0  0  0  0  0  0  0  0
   54.4175   48.9169   97.5070 C   0  0  0  0  0  0  0  0  0  0  0  0
   54.7143   48.4293   98.6792 C   0  0  0  0  0  0  0  0  0  0  0  0
   56.7593   47.1183   95.4000 C   0  0  0  0  0  0  0  0  0  0  0  0
  1  2  1  0
  2  3  1  0
  3  4  1  0
  4  5  1  0
  3  6  1  0
  6  7  2  0
  6  8  1  0
  8  9  1  0
  9 10  1  0
 10 11  1  0
 11 12  1  0
 12 13  1  0
 13 14  2  0
 14 15  1  0
 15 16  1  0
 16 17  2  0
 17 18  1  0
 18 19  2  0
 19 20  1  0
 20 21  2  0
 20 22  1  0
 22 23  2  0
 10 24  1  0
 23  8  1  0
 22 11  1  0
 21 13  1  0
 21 16  1  0
M  END
$$$$
