
     RDKit          3D

 24 27  0  0  0  0  0  0  0  0999 V2000
   58.3447   45.6850  101.4910 C   0  0  0  0  0  0  0  0  0  0  0  0
   58.5445   45.8438   99.9955 C   0  0  0  0  0  0  0  0  0  0  0  0
   57.4096   45.2049   99.3207 N   0  0  0  0  0  0  0  0  0  0  0  0
   57.3454   43.7693   99.3779 C   0  0  0  0  0  0  0  0  0  0  0  0
   58.1103   43.1481   98.2063 C   0  0  0  0  0  0  0  0  0  0  0  0
   56.4461   45.9795   98.6653 C   0  0  0  0  0  0  0  0  0  0  0  0
   55.5394   45.3751   98.0130 O   0  0  0  0  0  0  0  0  0  0  0  0
   56.3684   47.4634   98.6488 C   0  0  0  0  0  0  0  0  0  0  0  0
   55.7532   48.0419   99.8497 C   0  0  0  0  0  0  0  0  0  0  0  0
   54.6605   48.9291   99.6009 N   0  0  0  0  0  0  0  0  0  0  0  0
   54.9861   49.9079   98.5674 C   0  0  0  0  0  0  0  0  0  0  0  0
   53.9502   50.9546   98.5569 C   0  0  0  0  0  0  0  0  0  0  0  0
   53.4396   51.3593   97.2267 C   0  0  0  0  0  0  0  0  0  0  0  0
   52.6026   52.3792   96.7792 C   0  0  0  0  0  0  0  0  0  0  0  0
   52.4641   52.2844   95.4199 N   0  0  0  0  0  0  0  0  0  0  0  0
   53.1898   51.2340   94.9975 C   0  0  0  0  0  0  0  0  0  0  0  0
   53.4805   50.6047   93.7896 C   0  0  0  0  0  0  0  0  0  0  0  0
   54.3149   49.4901   93.7373 C   0  0  0  0  0  0  0  0  0  0  0  0
   54.9011   48.9441   94.8735 C   0  0  0  0  0  0  0  0  0  0  0  0
   54.6005   49.5795   96.0500 C   0  0  0  0  0  0  0  0  0  0  0  0
   53.7821   50.6725   96.0960 C   0  0  0  0  0  0  0  0  0  0  0  0
   55.1590   49.1044   97.3303 C   0  0  0  0  0  0  0  0  0  0  0  0
   55.7968   47.9695   97.4018 C   0  0  0  0  0  0  0  0  0  0  0  0
   54.1029   49.5192  100.7758 C   0  0  0  0  0  0  0  0  0  0  0  0
  1  2  1  0
  2  3  1  0
  3  4  1  0
  4  5  1  0
  3  6  1  0
  6  7  2  0
  6  8  1  0
  8  9  1  0
  9 10  1  0
 10 11  1  0
 11 12  1  0
 12 13  1  0
 13 14  2  0
 14 15  1  0
 15 16  1  0
 16 17  2  0
 17 18  1  0
 18 19  2  0
 19 20  1  0
 20 21  2  0
 20 22  1  0
 22 23  2  0
 10 24  1  0
 23  8  1  0
 22 11  1  0
 21 13  1  0
 21 16  1  0
M  END
$$$$
