
     RDKit          3D

 24 27  0  0  0  0  0  0  0  0999 V2000
   58.8952   45.9286  101.7517 C   0  0  0  0  0  0  0  0  0  0  0  0
   57.4077   45.7806  102.0103 C   0  0  0  0  0  0  0  0  0  0  0  0
   56.7218   45.8083  100.7140 N   0  0  0  0  0  0  0  0  0  0  0  0
   56.3725   44.5378  100.1377 C   0  0  0  0  0  0  0  0  0  0  0  0
   57.5903   43.8965   99.4674 C   0  0  0  0  0  0  0  0  0  0  0  0
   56.4279   47.0270  100.0927 C   0  0  0  0  0  0  0  0  0  0  0  0
   56.8614   48.0910  100.6338 O   0  0  0  0  0  0  0  0  0  0  0  0
   55.6460   47.2147   98.8429 C   0  0  0  0  0  0  0  0  0  0  0  0
   56.4026   46.9298   97.6174 C   0  0  0  0  0  0  0  0  0  0  0  0
   56.4039   47.9820   96.6500 N   0  0  0  0  0  0  0  0  0  0  0  0
   55.0584   48.4977   96.4136 C   0  0  0  0  0  0  0  0  0  0  0  0
   55.0807   49.3632   95.2222 C   0  0  0  0  0  0  0  0  0  0  0  0
   54.3630   50.6539   95.3352 C   0  0  0  0  0  0  0  0  0  0  0  0
   54.0233   51.6563   94.4293 C   0  0  0  0  0  0  0  0  0  0  0  0
   53.3461   52.6480   95.0879 N   0  0  0  0  0  0  0  0  0  0  0  0
   53.2490   52.2996   96.3830 C   0  0  0  0  0  0  0  0  0  0  0  0
   52.7057   52.8278   97.5516 C   0  0  0  0  0  0  0  0  0  0  0  0
   52.8011   52.1491   98.7646 C   0  0  0  0  0  0  0  0  0  0  0  0
   53.4368   50.9183   98.8819 C   0  0  0  0  0  0  0  0  0  0  0  0
   53.9638   50.4186   97.7196 C   0  0  0  0  0  0  0  0  0  0  0  0
   53.8672   51.0879   96.5324 C   0  0  0  0  0  0  0  0  0  0  0  0
   54.6625   49.1193   97.7031 C   0  0  0  0  0  0  0  0  0  0  0  0
   54.9577   48.5044   98.8142 C   0  0  0  0  0  0  0  0  0  0  0  0
   57.1049   47.6720   95.4451 C   0  0  0  0  0  0  0  0  0  0  0  0
  1  2  1  0
  2  3  1  0
  3  4  1  0
  4  5  1  0
  3  6  1  0
  6  7  2  0
  6  8  1  0
  8  9  1  0
  9 10  1  0
 10 11  1  0
 11 12  1  0
 12 13  1  0
 13 14  2  0
 14 15  1  0
 15 16  1  0
 16 17  2  0
 17 18  1  0
 18 19  2  0
 19 20  1  0
 20 21  2  0
 20 22  1  0
 22 23  2  0
 10 24  1  0
 23  8  1  0
 22 11  1  0
 21 13  1  0
 21 16  1  0
M  END
$$$$
