
     RDKit          3D

 24 27  0  0  0  0  0  0  0  0999 V2000
   59.5334   45.2144  100.3964 C   0  0  0  0  0  0  0  0  0  0  0  0
   58.2623   45.6866  101.0768 C   0  0  0  0  0  0  0  0  0  0  0  0
   57.2038   45.7406  100.0628 N   0  0  0  0  0  0  0  0  0  0  0  0
   56.5672   44.4966   99.7228 C   0  0  0  0  0  0  0  0  0  0  0  0
   55.3053   44.2890  100.5643 C   0  0  0  0  0  0  0  0  0  0  0  0
   56.8460   46.9588   99.4748 C   0  0  0  0  0  0  0  0  0  0  0  0
   57.4384   48.0091   99.8734 O   0  0  0  0  0  0  0  0  0  0  0  0
   55.8258   47.1606   98.4132 C   0  0  0  0  0  0  0  0  0  0  0  0
   56.3031   46.8493   97.0602 C   0  0  0  0  0  0  0  0  0  0  0  0
   56.1289   47.8960   96.1026 N   0  0  0  0  0  0  0  0  0  0  0  0
   54.7769   48.4460   96.1460 C   0  0  0  0  0  0  0  0  0  0  0  0
   54.5719   49.3043   94.9669 C   0  0  0  0  0  0  0  0  0  0  0  0
   53.9259   50.6142   95.2131 C   0  0  0  0  0  0  0  0  0  0  0  0
   53.4299   51.6206   94.3871 C   0  0  0  0  0  0  0  0  0  0  0  0
   52.9296   52.6333   95.1617 N   0  0  0  0  0  0  0  0  0  0  0  0
   53.0959   52.2944   96.4523 C   0  0  0  0  0  0  0  0  0  0  0  0
   52.8214   52.8429   97.7027 C   0  0  0  0  0  0  0  0  0  0  0  0
   53.1506   52.1683   98.8764 C   0  0  0  0  0  0  0  0  0  0  0  0
   53.7659   50.9216   98.8719 C   0  0  0  0  0  0  0  0  0  0  0  0
   54.0266   50.4021   97.6307 C   0  0  0  0  0  0  0  0  0  0  0  0
   53.7014   51.0675   96.4826 C   0  0  0  0  0  0  0  0  0  0  0  0
   54.6740   49.0847   97.4829 C   0  0  0  0  0  0  0  0  0  0  0  0
   55.1789   48.4679   98.5147 C   0  0  0  0  0  0  0  0  0  0  0  0
   56.5555   47.5613   94.7815 C   0  0  0  0  0  0  0  0  0  0  0  0
  1  2  1  0
  2  3  1  0
  3  4  1  0
  4  5  1  0
  3  6  1  0
  6  7  2  0
  6  8  1  0
  8  9  1  0
  9 10  1  0
 10 11  1  0
 11 12  1  0
 12 13  1  0
 13 14  2  0
 14 15  1  0
 15 16  1  0
 16 17  2  0
 17 18  1  0
 18 19  2  0
 19 20  1  0
 20 21  2  0
 20 22  1  0
 22 23  2  0
 10 24  1  0
 23  8  1  0
 22 11  1  0
 21 13  1  0
 21 16  1  0
M  END
$$$$
