
     RDKit          3D

 24 27  0  0  0  0  0  0  0  0999 V2000
   58.9191   46.7104  101.7490 C   0  0  0  0  0  0  0  0  0  0  0  0
   57.5178   46.1898  102.0077 C   0  0  0  0  0  0  0  0  0  0  0  0
   56.8186   46.1240  100.7199 N   0  0  0  0  0  0  0  0  0  0  0  0
   56.9158   44.8877   99.9915 C   0  0  0  0  0  0  0  0  0  0  0  0
   55.9774   43.8352  100.5878 C   0  0  0  0  0  0  0  0  0  0  0  0
   56.0935   47.2241  100.2491 C   0  0  0  0  0  0  0  0  0  0  0  0
   56.0907   48.2809  100.9535 O   0  0  0  0  0  0  0  0  0  0  0  0
   55.3093   47.2905   98.9886 C   0  0  0  0  0  0  0  0  0  0  0  0
   56.0593   46.8752   97.7968 C   0  0  0  0  0  0  0  0  0  0  0  0
   56.0667   47.8231   96.7271 N   0  0  0  0  0  0  0  0  0  0  0  0
   54.7251   48.3243   96.4425 C   0  0  0  0  0  0  0  0  0  0  0  0
   54.7511   49.0635   95.1689 C   0  0  0  0  0  0  0  0  0  0  0  0
   54.0453   50.3655   95.1514 C   0  0  0  0  0  0  0  0  0  0  0  0
   53.7115   51.2734   94.1487 C   0  0  0  0  0  0  0  0  0  0  0  0
   53.0452   52.3333   94.7043 N   0  0  0  0  0  0  0  0  0  0  0  0
   52.9493   52.1197   96.0284 C   0  0  0  0  0  0  0  0  0  0  0  0
   52.4145   52.7692   97.1383 C   0  0  0  0  0  0  0  0  0  0  0  0
   52.5079   52.2169   98.4140 C   0  0  0  0  0  0  0  0  0  0  0  0
   53.1330   50.9987   98.6547 C   0  0  0  0  0  0  0  0  0  0  0  0
   53.6518   50.3784   97.5482 C   0  0  0  0  0  0  0  0  0  0  0  0
   53.5573   50.9239   96.2992 C   0  0  0  0  0  0  0  0  0  0  0  0
   54.3390   49.0778   97.6627 C   0  0  0  0  0  0  0  0  0  0  0  0
   54.6324   48.5768   98.8301 C   0  0  0  0  0  0  0  0  0  0  0  0
   56.7611   47.3855   95.5585 C   0  0  0  0  0  0  0  0  0  0  0  0
  1  2  1  0
  2  3  1  0
  3  4  1  0
  4  5  1  0
  3  6  1  0
  6  7  2  0
  6  8  1  0
  8  9  1  0
  9 10  1  0
 10 11  1  0
 11 12  1  0
 12 13  1  0
 13 14  2  0
 14 15  1  0
 15 16  1  0
 16 17  2  0
 17 18  1  0
 18 19  2  0
 19 20  1  0
 20 21  2  0
 20 22  1  0
 22 23  2  0
 10 24  1  0
 23  8  1  0
 22 11  1  0
 21 13  1  0
 21 16  1  0
M  END
$$$$
