
     RDKit          3D

 24 27  0  0  0  0  0  0  0  0999 V2000
   57.5051   43.9247   99.9368 C   0  0  0  0  0  0  0  0  0  0  0  0
   56.1928   44.5836  100.3177 C   0  0  0  0  0  0  0  0  0  0  0  0
   56.5011   45.8934  100.9016 N   0  0  0  0  0  0  0  0  0  0  0  0
   57.1761   45.8949  102.1715 C   0  0  0  0  0  0  0  0  0  0  0  0
   56.1661   45.9759  103.3190 C   0  0  0  0  0  0  0  0  0  0  0  0
   56.1496   47.0699  100.2306 C   0  0  0  0  0  0  0  0  0  0  0  0
   56.4759   48.1773  100.7598 O   0  0  0  0  0  0  0  0  0  0  0  0
   55.4196   47.1654   98.9397 C   0  0  0  0  0  0  0  0  0  0  0  0
   56.2069   46.7389   97.7762 C   0  0  0  0  0  0  0  0  0  0  0  0
   56.2825   47.6938   96.7153 N   0  0  0  0  0  0  0  0  0  0  0  0
   54.9670   48.2317   96.3802 C   0  0  0  0  0  0  0  0  0  0  0  0
   55.0642   48.9788   95.1147 C   0  0  0  0  0  0  0  0  0  0  0  0
   54.3934   50.2988   95.0788 C   0  0  0  0  0  0  0  0  0  0  0  0
   54.1245   51.2220   94.0706 C   0  0  0  0  0  0  0  0  0  0  0  0
   53.4635   52.2950   94.6071 N   0  0  0  0  0  0  0  0  0  0  0  0
   53.3080   52.0748   95.9245 C   0  0  0  0  0  0  0  0  0  0  0  0
   52.7451   52.7304   97.0168 C   0  0  0  0  0  0  0  0  0  0  0  0
   52.7719   52.1670   98.2908 C   0  0  0  0  0  0  0  0  0  0  0  0
   53.3551   50.9313   98.5470 C   0  0  0  0  0  0  0  0  0  0  0  0
   53.9026   50.3053   97.4577 C   0  0  0  0  0  0  0  0  0  0  0  0
   53.8733   50.8618   96.2102 C   0  0  0  0  0  0  0  0  0  0  0  0
   54.5507   48.9865   97.5897 C   0  0  0  0  0  0  0  0  0  0  0  0
   54.7831   48.4699   98.7640 C   0  0  0  0  0  0  0  0  0  0  0  0
   57.0126   47.2463   95.5725 C   0  0  0  0  0  0  0  0  0  0  0  0
  1  2  1  0
  2  3  1  0
  3  4  1  0
  4  5  1  0
  3  6  1  0
  6  7  2  0
  6  8  1  0
  8  9  1  0
  9 10  1  0
 10 11  1  0
 11 12  1  0
 12 13  1  0
 13 14  2  0
 14 15  1  0
 15 16  1  0
 16 17  2  0
 17 18  1  0
 18 19  2  0
 19 20  1  0
 20 21  2  0
 20 22  1  0
 22 23  2  0
 10 24  1  0
 23  8  1  0
 22 11  1  0
 21 13  1  0
 21 16  1  0
M  END
$$$$
