
     RDKit          3D

 24 27  0  0  0  0  0  0  0  0999 V2000
   56.0918   44.0839  100.4707 C   0  0  0  0  0  0  0  0  0  0  0  0
   57.2576   44.9635  100.0600 C   0  0  0  0  0  0  0  0  0  0  0  0
   57.1637   46.2158  100.8180 N   0  0  0  0  0  0  0  0  0  0  0  0
   57.8953   46.2820  102.0545 C   0  0  0  0  0  0  0  0  0  0  0  0
   56.9769   45.9792  103.2413 C   0  0  0  0  0  0  0  0  0  0  0  0
   56.3970   47.2819  100.3349 C   0  0  0  0  0  0  0  0  0  0  0  0
   56.3174   48.3294  101.0486 O   0  0  0  0  0  0  0  0  0  0  0  0
   55.6493   47.3211   99.0512 C   0  0  0  0  0  0  0  0  0  0  0  0
   56.4423   46.9094   97.8863 C   0  0  0  0  0  0  0  0  0  0  0  0
   56.4631   47.8472   96.8079 N   0  0  0  0  0  0  0  0  0  0  0  0
   55.1211   48.3193   96.4789 C   0  0  0  0  0  0  0  0  0  0  0  0
   55.1706   49.0469   95.1993 C   0  0  0  0  0  0  0  0  0  0  0  0
   54.4406   50.3346   95.1480 C   0  0  0  0  0  0  0  0  0  0  0  0
   54.1192   51.2264   94.1269 C   0  0  0  0  0  0  0  0  0  0  0  0
   53.4164   52.2781   94.6521 N   0  0  0  0  0  0  0  0  0  0  0  0
   53.2854   52.0751   95.9749 C   0  0  0  0  0  0  0  0  0  0  0  0
   52.7055   52.7244   97.0620 C   0  0  0  0  0  0  0  0  0  0  0  0
   52.7716   52.1861   98.3454 C   0  0  0  0  0  0  0  0  0  0  0  0
   53.4127   50.9827   98.6165 C   0  0  0  0  0  0  0  0  0  0  0  0
   53.9760   50.3623   97.5320 C   0  0  0  0  0  0  0  0  0  0  0  0
   53.9080   50.8941   96.2754 C   0  0  0  0  0  0  0  0  0  0  0  0
   54.6844   49.0765   97.6796 C   0  0  0  0  0  0  0  0  0  0  0  0
   54.9527   48.5923   98.8600 C   0  0  0  0  0  0  0  0  0  0  0  0
   57.2001   47.4124   95.6646 C   0  0  0  0  0  0  0  0  0  0  0  0
  1  2  1  0
  2  3  1  0
  3  4  1  0
  4  5  1  0
  3  6  1  0
  6  7  2  0
  6  8  1  0
  8  9  1  0
  9 10  1  0
 10 11  1  0
 11 12  1  0
 12 13  1  0
 13 14  2  0
 14 15  1  0
 15 16  1  0
 16 17  2  0
 17 18  1  0
 18 19  2  0
 19 20  1  0
 20 21  2  0
 20 22  1  0
 22 23  2  0
 10 24  1  0
 23  8  1  0
 22 11  1  0
 21 13  1  0
 21 16  1  0
M  END
$$$$
