
     RDKit          3D

 24 27  0  0  0  0  0  0  0  0999 V2000
   59.2932   46.0300  101.1676 C   0  0  0  0  0  0  0  0  0  0  0  0
   57.8537   45.8320  101.6037 C   0  0  0  0  0  0  0  0  0  0  0  0
   57.0161   45.8307  100.3996 N   0  0  0  0  0  0  0  0  0  0  0  0
   56.8258   44.5653   99.7432 C   0  0  0  0  0  0  0  0  0  0  0  0
   55.6499   43.8070  100.3643 C   0  0  0  0  0  0  0  0  0  0  0  0
   56.4367   47.0173   99.9369 C   0  0  0  0  0  0  0  0  0  0  0  0
   56.6888   48.0892  100.5697 O   0  0  0  0  0  0  0  0  0  0  0  0
   55.5388   47.1615   98.7615 C   0  0  0  0  0  0  0  0  0  0  0  0
   56.1576   46.7758   97.4873 C   0  0  0  0  0  0  0  0  0  0  0  0
   56.0954   47.7685   96.4607 N   0  0  0  0  0  0  0  0  0  0  0  0
   54.7506   48.3214   96.3272 C   0  0  0  0  0  0  0  0  0  0  0  0
   54.6804   49.1138   95.0877 C   0  0  0  0  0  0  0  0  0  0  0  0
   54.0207   50.4359   95.1906 C   0  0  0  0  0  0  0  0  0  0  0  0
   53.6241   51.3958   94.2620 C   0  0  0  0  0  0  0  0  0  0  0  0
   53.0500   52.4502   94.9214 N   0  0  0  0  0  0  0  0  0  0  0  0
   53.0733   52.1825   96.2390 C   0  0  0  0  0  0  0  0  0  0  0  0
   52.6688   52.7992   97.4204 C   0  0  0  0  0  0  0  0  0  0  0  0
   52.8643   52.1898   98.6580 C   0  0  0  0  0  0  0  0  0  0  0  0
   53.4678   50.9442   98.7882 C   0  0  0  0  0  0  0  0  0  0  0  0
   53.8576   50.3570   97.6128 C   0  0  0  0  0  0  0  0  0  0  0  0
   53.6633   50.9585   96.4016 C   0  0  0  0  0  0  0  0  0  0  0  0
   54.5080   49.0327   97.6082 C   0  0  0  0  0  0  0  0  0  0  0  0
   54.8940   48.4731   98.7208 C   0  0  0  0  0  0  0  0  0  0  0  0
   56.6602   47.3611   95.2140 C   0  0  0  0  0  0  0  0  0  0  0  0
  1  2  1  0
  2  3  1  0
  3  4  1  0
  4  5  1  0
  3  6  1  0
  6  7  2  0
  6  8  1  0
  8  9  1  0
  9 10  1  0
 10 11  1  0
 11 12  1  0
 12 13  1  0
 13 14  2  0
 14 15  1  0
 15 16  1  0
 16 17  2  0
 17 18  1  0
 18 19  2  0
 19 20  1  0
 20 21  2  0
 20 22  1  0
 22 23  2  0
 10 24  1  0
 23  8  1  0
 22 11  1  0
 21 13  1  0
 21 16  1  0
M  END
$$$$
