
     RDKit          3D

 24 27  0  0  0  0  0  0  0  0999 V2000
   57.0357   43.3149   99.7400 C   0  0  0  0  0  0  0  0  0  0  0  0
   57.8878   43.8637   98.6112 C   0  0  0  0  0  0  0  0  0  0  0  0
   57.8861   45.3266   98.7178 N   0  0  0  0  0  0  0  0  0  0  0  0
   59.0644   45.9380   99.2711 C   0  0  0  0  0  0  0  0  0  0  0  0
   59.2087   45.5865  100.7541 C   0  0  0  0  0  0  0  0  0  0  0  0
   56.7799   46.0681   98.2884 C   0  0  0  0  0  0  0  0  0  0  0  0
   55.8141   45.4407   97.7531 O   0  0  0  0  0  0  0  0  0  0  0  0
   56.6104   47.5408   98.3919 C   0  0  0  0  0  0  0  0  0  0  0  0
   56.0023   47.9841   99.6524 C   0  0  0  0  0  0  0  0  0  0  0  0
   54.8491   48.8160   99.5070 N   0  0  0  0  0  0  0  0  0  0  0  0
   55.0782   49.8906   98.5452 C   0  0  0  0  0  0  0  0  0  0  0  0
   53.9799   50.8664   98.6482 C   0  0  0  0  0  0  0  0  0  0  0  0
   53.4001   51.3391   97.3699 C   0  0  0  0  0  0  0  0  0  0  0  0
   52.4870   52.3348   97.0294 C   0  0  0  0  0  0  0  0  0  0  0  0
   52.3080   52.3367   95.6715 N   0  0  0  0  0  0  0  0  0  0  0  0
   53.0821   51.3708   95.1460 C   0  0  0  0  0  0  0  0  0  0  0  0
   53.3695   50.8567   93.8840 C   0  0  0  0  0  0  0  0  0  0  0  0
   54.2686   49.8052   93.7190 C   0  0  0  0  0  0  0  0  0  0  0  0
   54.9260   49.2118   94.7906 C   0  0  0  0  0  0  0  0  0  0  0  0
   54.6274   49.7337   96.0221 C   0  0  0  0  0  0  0  0  0  0  0  0
   53.7452   50.7652   96.1786 C   0  0  0  0  0  0  0  0  0  0  0  0
   55.2577   49.1979   97.2438 C   0  0  0  0  0  0  0  0  0  0  0  0
   55.9663   48.1041   97.2063 C   0  0  0  0  0  0  0  0  0  0  0  0
   54.2969   49.2765  100.7408 C   0  0  0  0  0  0  0  0  0  0  0  0
  1  2  1  0
  2  3  1  0
  3  4  1  0
  4  5  1  0
  3  6  1  0
  6  7  2  0
  6  8  1  0
  8  9  1  0
  9 10  1  0
 10 11  1  0
 11 12  1  0
 12 13  1  0
 13 14  2  0
 14 15  1  0
 15 16  1  0
 16 17  2  0
 17 18  1  0
 18 19  2  0
 19 20  1  0
 20 21  2  0
 20 22  1  0
 22 23  2  0
 10 24  1  0
 23  8  1  0
 22 11  1  0
 21 13  1  0
 21 16  1  0
M  END
$$$$
