
     RDKit          3D

 24 27  0  0  0  0  0  0  0  0999 V2000
   55.5701   43.8943  100.0984 C   0  0  0  0  0  0  0  0  0  0  0  0
   56.8573   44.5564   99.6444 C   0  0  0  0  0  0  0  0  0  0  0  0
   56.9784   45.8351  100.3528 N   0  0  0  0  0  0  0  0  0  0  0  0
   57.9178   45.8876  101.4406 C   0  0  0  0  0  0  0  0  0  0  0  0
   57.2593   45.4295  102.7445 C   0  0  0  0  0  0  0  0  0  0  0  0
   56.2092   46.9373   99.9640 C   0  0  0  0  0  0  0  0  0  0  0  0
   56.1933   47.9516  100.7282 O   0  0  0  0  0  0  0  0  0  0  0  0
   55.3909   47.0511   98.7287 C   0  0  0  0  0  0  0  0  0  0  0  0
   56.0992   46.6545   97.5054 C   0  0  0  0  0  0  0  0  0  0  0  0
   56.0939   47.6304   96.4611 N   0  0  0  0  0  0  0  0  0  0  0  0
   54.7542   48.1626   96.2283 C   0  0  0  0  0  0  0  0  0  0  0  0
   54.7579   48.9349   94.9743 C   0  0  0  0  0  0  0  0  0  0  0  0
   54.0760   50.2492   95.0111 C   0  0  0  0  0  0  0  0  0  0  0  0
   53.7308   51.1893   94.0425 C   0  0  0  0  0  0  0  0  0  0  0  0
   53.1002   52.2456   94.6445 N   0  0  0  0  0  0  0  0  0  0  0  0
   53.0378   51.9985   95.9648 C   0  0  0  0  0  0  0  0  0  0  0  0
   52.5467   52.6276   97.1062 C   0  0  0  0  0  0  0  0  0  0  0  0
   52.6659   52.0400   98.3638 C   0  0  0  0  0  0  0  0  0  0  0  0
   53.2750   50.8049   98.5546 C   0  0  0  0  0  0  0  0  0  0  0  0
   53.7507   50.2052   97.4178 C   0  0  0  0  0  0  0  0  0  0  0  0
   53.6310   50.7854   96.1867 C   0  0  0  0  0  0  0  0  0  0  0  0
   54.4167   48.8901   97.4785 C   0  0  0  0  0  0  0  0  0  0  0  0
   54.7337   48.3530   98.6234 C   0  0  0  0  0  0  0  0  0  0  0  0
   56.7467   47.2118   95.2619 C   0  0  0  0  0  0  0  0  0  0  0  0
  1  2  1  0
  2  3  1  0
  3  4  1  0
  4  5  1  0
  3  6  1  0
  6  7  2  0
  6  8  1  0
  8  9  1  0
  9 10  1  0
 10 11  1  0
 11 12  1  0
 12 13  1  0
 13 14  2  0
 14 15  1  0
 15 16  1  0
 16 17  2  0
 17 18  1  0
 18 19  2  0
 19 20  1  0
 20 21  2  0
 20 22  1  0
 22 23  2  0
 10 24  1  0
 23  8  1  0
 22 11  1  0
 21 13  1  0
 21 16  1  0
M  END
$$$$
