
     RDKit          3D

 24 27  0  0  0  0  0  0  0  0999 V2000
   58.4432   43.2660   98.4236 C   0  0  0  0  0  0  0  0  0  0  0  0
   57.5760   43.9032   99.4928 C   0  0  0  0  0  0  0  0  0  0  0  0
   57.7326   45.3580   99.3896 N   0  0  0  0  0  0  0  0  0  0  0  0
   58.7331   45.9636  100.2268 C   0  0  0  0  0  0  0  0  0  0  0  0
   60.0675   46.0670   99.4837 C   0  0  0  0  0  0  0  0  0  0  0  0
   56.9378   46.0965   98.5061 C   0  0  0  0  0  0  0  0  0  0  0  0
   56.2314   45.4583   97.6654 O   0  0  0  0  0  0  0  0  0  0  0  0
   56.8297   47.5773   98.4430 C   0  0  0  0  0  0  0  0  0  0  0  0
   56.2905   48.1885   99.6641 C   0  0  0  0  0  0  0  0  0  0  0  0
   55.1654   49.0470   99.4637 N   0  0  0  0  0  0  0  0  0  0  0  0
   55.3970   49.9929   98.3756 C   0  0  0  0  0  0  0  0  0  0  0  0
   54.3424   51.0206   98.4030 C   0  0  0  0  0  0  0  0  0  0  0  0
   53.7302   51.3675   97.0997 C   0  0  0  0  0  0  0  0  0  0  0  0
   52.8433   52.3559   96.6781 C   0  0  0  0  0  0  0  0  0  0  0  0
   52.6100   52.2091   95.3365 N   0  0  0  0  0  0  0  0  0  0  0  0
   53.3243   51.1567   94.9001 C   0  0  0  0  0  0  0  0  0  0  0  0
   53.5404   50.4889   93.6972 C   0  0  0  0  0  0  0  0  0  0  0  0
   54.3908   49.3876   93.6241 C   0  0  0  0  0  0  0  0  0  0  0  0
   55.0675   48.8937   94.7336 C   0  0  0  0  0  0  0  0  0  0  0  0
   54.8391   49.5663   95.9057 C   0  0  0  0  0  0  0  0  0  0  0  0
   54.0045   50.6460   95.9721 C   0  0  0  0  0  0  0  0  0  0  0  0
   55.4969   49.1479   97.1583 C   0  0  0  0  0  0  0  0  0  0  0  0
   56.1606   48.0276   97.2235 C   0  0  0  0  0  0  0  0  0  0  0  0
   54.6816   49.6699  100.6542 C   0  0  0  0  0  0  0  0  0  0  0  0
  1  2  1  0
  2  3  1  0
  3  4  1  0
  4  5  1  0
  3  6  1  0
  6  7  2  0
  6  8  1  0
  8  9  1  0
  9 10  1  0
 10 11  1  0
 11 12  1  0
 12 13  1  0
 13 14  2  0
 14 15  1  0
 15 16  1  0
 16 17  2  0
 17 18  1  0
 18 19  2  0
 19 20  1  0
 20 21  2  0
 20 22  1  0
 22 23  2  0
 10 24  1  0
 23  8  1  0
 22 11  1  0
 21 13  1  0
 21 16  1  0
M  END
$$$$
