
     RDKit          3D

 24 27  0  0  0  0  0  0  0  0999 V2000
   56.7801   45.3856  103.0657 C   0  0  0  0  0  0  0  0  0  0  0  0
   57.7479   45.6990  101.9402 C   0  0  0  0  0  0  0  0  0  0  0  0
   56.9852   45.7289  100.6877 N   0  0  0  0  0  0  0  0  0  0  0  0
   56.9098   44.4998   99.9446 C   0  0  0  0  0  0  0  0  0  0  0  0
   58.3101   44.0160   99.5590 C   0  0  0  0  0  0  0  0  0  0  0  0
   56.3650   46.9089  100.2624 C   0  0  0  0  0  0  0  0  0  0  0  0
   56.5110   47.9489  100.9766 O   0  0  0  0  0  0  0  0  0  0  0  0
   55.5360   47.0798   99.0410 C   0  0  0  0  0  0  0  0  0  0  0  0
   56.2365   46.7500   97.7936 C   0  0  0  0  0  0  0  0  0  0  0  0
   56.2168   47.7774   96.8000 N   0  0  0  0  0  0  0  0  0  0  0  0
   54.8721   48.3121   96.6051 C   0  0  0  0  0  0  0  0  0  0  0  0
   54.8608   49.1468   95.3918 C   0  0  0  0  0  0  0  0  0  0  0  0
   54.1713   50.4532   95.5004 C   0  0  0  0  0  0  0  0  0  0  0  0
   53.8126   51.4387   94.5834 C   0  0  0  0  0  0  0  0  0  0  0  0
   53.1806   52.4592   95.2430 N   0  0  0  0  0  0  0  0  0  0  0  0
   53.1306   52.1453   96.5496 C   0  0  0  0  0  0  0  0  0  0  0  0
   52.6451   52.7128   97.7252 C   0  0  0  0  0  0  0  0  0  0  0  0
   52.7782   52.0631   98.9505 C   0  0  0  0  0  0  0  0  0  0  0  0
   53.3962   50.8239   99.0737 C   0  0  0  0  0  0  0  0  0  0  0  0
   53.8661   50.2855   97.9043 C   0  0  0  0  0  0  0  0  0  0  0  0
   53.7328   50.9264   96.7051 C   0  0  0  0  0  0  0  0  0  0  0  0
   54.5405   48.9732   97.8931 C   0  0  0  0  0  0  0  0  0  0  0  0
   54.8701   48.3810   99.0069 C   0  0  0  0  0  0  0  0  0  0  0  0
   56.8622   47.4241   95.5761 C   0  0  0  0  0  0  0  0  0  0  0  0
  1  2  1  0
  2  3  1  0
  3  4  1  0
  4  5  1  0
  3  6  1  0
  6  7  2  0
  6  8  1  0
  8  9  1  0
  9 10  1  0
 10 11  1  0
 11 12  1  0
 12 13  1  0
 13 14  2  0
 14 15  1  0
 15 16  1  0
 16 17  2  0
 17 18  1  0
 18 19  2  0
 19 20  1  0
 20 21  2  0
 20 22  1  0
 22 23  2  0
 10 24  1  0
 23  8  1  0
 22 11  1  0
 21 13  1  0
 21 16  1  0
M  END
$$$$
