
     RDKit          3D

 24 27  0  0  0  0  0  0  0  0999 V2000
   59.1780   46.3234  101.1979 C   0  0  0  0  0  0  0  0  0  0  0  0
   57.7534   46.0078  101.6131 C   0  0  0  0  0  0  0  0  0  0  0  0
   56.9378   45.9309  100.3963 N   0  0  0  0  0  0  0  0  0  0  0  0
   56.8030   44.6353   99.7866 C   0  0  0  0  0  0  0  0  0  0  0  0
   55.7711   43.7904  100.5382 C   0  0  0  0  0  0  0  0  0  0  0  0
   56.3261   47.0778   99.8784 C   0  0  0  0  0  0  0  0  0  0  0  0
   56.5345   48.1823  100.4697 O   0  0  0  0  0  0  0  0  0  0  0  0
   55.4398   47.1442   98.6874 C   0  0  0  0  0  0  0  0  0  0  0  0
   56.1043   46.7852   97.4285 C   0  0  0  0  0  0  0  0  0  0  0  0
   55.9908   47.7576   96.3870 N   0  0  0  0  0  0  0  0  0  0  0  0
   54.6135   48.2146   96.2249 C   0  0  0  0  0  0  0  0  0  0  0  0
   54.5093   48.9839   94.9733 C   0  0  0  0  0  0  0  0  0  0  0  0
   53.7586   50.2585   95.0471 C   0  0  0  0  0  0  0  0  0  0  0  0
   53.3122   51.1765   94.0989 C   0  0  0  0  0  0  0  0  0  0  0  0
   52.6563   52.1973   94.7341 N   0  0  0  0  0  0  0  0  0  0  0  0
   52.6763   51.9494   96.0556 C   0  0  0  0  0  0  0  0  0  0  0  0
   52.2112   52.5523   97.2217 C   0  0  0  0  0  0  0  0  0  0  0  0
   52.4279   51.9742   98.4708 C   0  0  0  0  0  0  0  0  0  0  0  0
   53.1134   50.7750   98.6281 C   0  0  0  0  0  0  0  0  0  0  0  0
   53.5618   50.2006   97.4674 C   0  0  0  0  0  0  0  0  0  0  0  0
   53.3464   50.7713   96.2449 C   0  0  0  0  0  0  0  0  0  0  0  0
   54.3017   48.9244   97.4917 C   0  0  0  0  0  0  0  0  0  0  0  0
   54.7070   48.4075   98.6180 C   0  0  0  0  0  0  0  0  0  0  0  0
   56.6025   47.3737   95.1551 C   0  0  0  0  0  0  0  0  0  0  0  0
  1  2  1  0
  2  3  1  0
  3  4  1  0
  4  5  1  0
  3  6  1  0
  6  7  2  0
  6  8  1  0
  8  9  1  0
  9 10  1  0
 10 11  1  0
 11 12  1  0
 12 13  1  0
 13 14  2  0
 14 15  1  0
 15 16  1  0
 16 17  2  0
 17 18  1  0
 18 19  2  0
 19 20  1  0
 20 21  2  0
 20 22  1  0
 22 23  2  0
 10 24  1  0
 23  8  1  0
 22 11  1  0
 21 13  1  0
 21 16  1  0
M  END
$$$$
