
     RDKit          3D

 24 27  0  0  0  0  0  0  0  0999 V2000
   55.9260   44.1334  100.2415 C   0  0  0  0  0  0  0  0  0  0  0  0
   57.0688   44.8221   99.5195 C   0  0  0  0  0  0  0  0  0  0  0  0
   57.3311   46.0928  100.2036 N   0  0  0  0  0  0  0  0  0  0  0  0
   58.3584   46.0876  101.2101 C   0  0  0  0  0  0  0  0  0  0  0  0
   57.7542   45.8473  102.5961 C   0  0  0  0  0  0  0  0  0  0  0  0
   56.6060   47.2418   99.8689 C   0  0  0  0  0  0  0  0  0  0  0  0
   56.7313   48.2628  100.6137 O   0  0  0  0  0  0  0  0  0  0  0  0
   55.6853   47.3990   98.7130 C   0  0  0  0  0  0  0  0  0  0  0  0
   56.2880   47.0552   97.4193 C   0  0  0  0  0  0  0  0  0  0  0  0
   56.1911   48.0713   96.4187 N   0  0  0  0  0  0  0  0  0  0  0  0
   54.8351   48.6040   96.3219 C   0  0  0  0  0  0  0  0  0  0  0  0
   54.7298   49.4251   95.1037 C   0  0  0  0  0  0  0  0  0  0  0  0
   54.0499   50.7327   95.2504 C   0  0  0  0  0  0  0  0  0  0  0  0
   53.6210   51.7080   94.3527 C   0  0  0  0  0  0  0  0  0  0  0  0
   53.0410   52.7359   95.0476 N   0  0  0  0  0  0  0  0  0  0  0  0
   53.0919   52.4368   96.3576 C   0  0  0  0  0  0  0  0  0  0  0  0
   52.6979   53.0175   97.5606 C   0  0  0  0  0  0  0  0  0  0  0  0
   52.9254   52.3816   98.7793 C   0  0  0  0  0  0  0  0  0  0  0  0
   53.5519   51.1437   98.8684 C   0  0  0  0  0  0  0  0  0  0  0  0
   53.9308   50.5921   97.6724 C   0  0  0  0  0  0  0  0  0  0  0  0
   53.7051   51.2195   96.4799 C   0  0  0  0  0  0  0  0  0  0  0  0
   54.6031   49.2797   97.6240 C   0  0  0  0  0  0  0  0  0  0  0  0
   55.0179   48.6999   98.7157 C   0  0  0  0  0  0  0  0  0  0  0  0
   56.7407   47.7042   95.1528 C   0  0  0  0  0  0  0  0  0  0  0  0
  1  2  1  0
  2  3  1  0
  3  4  1  0
  4  5  1  0
  3  6  1  0
  6  7  2  0
  6  8  1  0
  8  9  1  0
  9 10  1  0
 10 11  1  0
 11 12  1  0
 12 13  1  0
 13 14  2  0
 14 15  1  0
 15 16  1  0
 16 17  2  0
 17 18  1  0
 18 19  2  0
 19 20  1  0
 20 21  2  0
 20 22  1  0
 22 23  2  0
 10 24  1  0
 23  8  1  0
 22 11  1  0
 21 13  1  0
 21 16  1  0
M  END
$$$$
