
     RDKit          3D

 24 27  0  0  0  0  0  0  0  0999 V2000
   56.0977   45.6395  103.0329 C   0  0  0  0  0  0  0  0  0  0  0  0
   57.2102   45.7712  102.0100 C   0  0  0  0  0  0  0  0  0  0  0  0
   56.5957   45.7888  100.6783 N   0  0  0  0  0  0  0  0  0  0  0  0
   56.6468   44.5653   99.9241 C   0  0  0  0  0  0  0  0  0  0  0  0
   57.4089   43.4863  100.6978 C   0  0  0  0  0  0  0  0  0  0  0  0
   55.9899   46.9524  100.1917 C   0  0  0  0  0  0  0  0  0  0  0  0
   56.0786   48.0077  100.8927 O   0  0  0  0  0  0  0  0  0  0  0  0
   55.2373   47.0892   98.9175 C   0  0  0  0  0  0  0  0  0  0  0  0
   55.9938   46.6727   97.7302 C   0  0  0  0  0  0  0  0  0  0  0  0
   56.0676   47.6484   96.6883 N   0  0  0  0  0  0  0  0  0  0  0  0
   54.7566   48.2181   96.3903 C   0  0  0  0  0  0  0  0  0  0  0  0
   54.8440   48.9900   95.1390 C   0  0  0  0  0  0  0  0  0  0  0  0
   54.1984   50.3230   95.1438 C   0  0  0  0  0  0  0  0  0  0  0  0
   53.9282   51.2724   94.1606 C   0  0  0  0  0  0  0  0  0  0  0  0
   53.2985   52.3461   94.7322 N   0  0  0  0  0  0  0  0  0  0  0  0
   53.1640   52.1009   96.0475 C   0  0  0  0  0  0  0  0  0  0  0  0
   52.6349   52.7436   97.1640 C   0  0  0  0  0  0  0  0  0  0  0  0
   52.6752   52.1528   98.4252 C   0  0  0  0  0  0  0  0  0  0  0  0
   53.2390   50.9011   98.6441 C   0  0  0  0  0  0  0  0  0  0  0  0
   53.7534   50.2882   97.5314 C   0  0  0  0  0  0  0  0  0  0  0  0
   53.7111   50.8715   96.2967 C   0  0  0  0  0  0  0  0  0  0  0  0
   54.3783   48.9548   97.6232 C   0  0  0  0  0  0  0  0  0  0  0  0
   54.6230   48.4090   98.7816 C   0  0  0  0  0  0  0  0  0  0  0  0
   56.7669   47.2115   95.5223 C   0  0  0  0  0  0  0  0  0  0  0  0
  1  2  1  0
  2  3  1  0
  3  4  1  0
  4  5  1  0
  3  6  1  0
  6  7  2  0
  6  8  1  0
  8  9  1  0
  9 10  1  0
 10 11  1  0
 11 12  1  0
 12 13  1  0
 13 14  2  0
 14 15  1  0
 15 16  1  0
 16 17  2  0
 17 18  1  0
 18 19  2  0
 19 20  1  0
 20 21  2  0
 20 22  1  0
 22 23  2  0
 10 24  1  0
 23  8  1  0
 22 11  1  0
 21 13  1  0
 21 16  1  0
M  END
$$$$
