
     RDKit          3D

 24 27  0  0  0  0  0  0  0  0999 V2000
   58.9809   46.4804  101.8311 C   0  0  0  0  0  0  0  0  0  0  0  0
   57.5183   46.1608  102.0761 C   0  0  0  0  0  0  0  0  0  0  0  0
   56.8626   46.0296  100.7706 N   0  0  0  0  0  0  0  0  0  0  0  0
   56.9758   44.7555  100.1131 C   0  0  0  0  0  0  0  0  0  0  0  0
   55.8257   43.8325  100.5242 C   0  0  0  0  0  0  0  0  0  0  0  0
   56.1617   47.1067  100.2172 C   0  0  0  0  0  0  0  0  0  0  0  0
   56.1447   48.2006  100.8622 O   0  0  0  0  0  0  0  0  0  0  0  0
   55.4185   47.1084   98.9302 C   0  0  0  0  0  0  0  0  0  0  0  0
   56.2218   46.6842   97.7769 C   0  0  0  0  0  0  0  0  0  0  0  0
   56.2334   47.5997   96.6794 N   0  0  0  0  0  0  0  0  0  0  0  0
   54.8860   48.0455   96.3358 C   0  0  0  0  0  0  0  0  0  0  0  0
   54.9301   48.7471   95.0416 C   0  0  0  0  0  0  0  0  0  0  0  0
   54.1819   50.0228   94.9610 C   0  0  0  0  0  0  0  0  0  0  0  0
   53.8517   50.8884   93.9204 C   0  0  0  0  0  0  0  0  0  0  0  0
   53.1319   51.9406   94.4211 N   0  0  0  0  0  0  0  0  0  0  0  0
   52.9986   51.7632   95.7474 C   0  0  0  0  0  0  0  0  0  0  0  0
   52.4052   52.4264   96.8186 C   0  0  0  0  0  0  0  0  0  0  0  0
   52.4741   51.9158   98.1131 C   0  0  0  0  0  0  0  0  0  0  0  0
   53.1313   50.7276   98.4115 C   0  0  0  0  0  0  0  0  0  0  0  0
   53.7076   50.0931   97.3421 C   0  0  0  0  0  0  0  0  0  0  0  0
   53.6369   50.5977   96.0745 C   0  0  0  0  0  0  0  0  0  0  0  0
   54.4339   48.8210   97.5190 C   0  0  0  0  0  0  0  0  0  0  0  0
   54.7045   48.3653   98.7102 C   0  0  0  0  0  0  0  0  0  0  0  0
   56.9810   47.1519   95.5481 C   0  0  0  0  0  0  0  0  0  0  0  0
  1  2  1  0
  2  3  1  0
  3  4  1  0
  4  5  1  0
  3  6  1  0
  6  7  2  0
  6  8  1  0
  8  9  1  0
  9 10  1  0
 10 11  1  0
 11 12  1  0
 12 13  1  0
 13 14  2  0
 14 15  1  0
 15 16  1  0
 16 17  2  0
 17 18  1  0
 18 19  2  0
 19 20  1  0
 20 21  2  0
 20 22  1  0
 22 23  2  0
 10 24  1  0
 23  8  1  0
 22 11  1  0
 21 13  1  0
 21 16  1  0
M  END
$$$$
