
     RDKit          3D

 24 27  0  0  0  0  0  0  0  0999 V2000
   55.4691   45.0402  102.8513 C   0  0  0  0  0  0  0  0  0  0  0  0
   56.7479   45.3399  102.0923 C   0  0  0  0  0  0  0  0  0  0  0  0
   56.4087   45.4576  100.6701 N   0  0  0  0  0  0  0  0  0  0  0  0
   56.5654   44.2756   99.8659 C   0  0  0  0  0  0  0  0  0  0  0  0
   58.0483   43.9543   99.6625 C   0  0  0  0  0  0  0  0  0  0  0  0
   55.9507   46.6723  100.1480 C   0  0  0  0  0  0  0  0  0  0  0  0
   56.1335   47.7233  100.8372 O   0  0  0  0  0  0  0  0  0  0  0  0
   55.2582   46.8693   98.8480 C   0  0  0  0  0  0  0  0  0  0  0  0
   56.0690   46.5060   97.6792 C   0  0  0  0  0  0  0  0  0  0  0  0
   56.1914   47.5283   96.6877 N   0  0  0  0  0  0  0  0  0  0  0  0
   54.8958   48.1142   96.3557 C   0  0  0  0  0  0  0  0  0  0  0  0
   55.0415   48.9426   95.1467 C   0  0  0  0  0  0  0  0  0  0  0  0
   54.3967   50.2755   95.1828 C   0  0  0  0  0  0  0  0  0  0  0  0
   54.1727   51.2697   94.2328 C   0  0  0  0  0  0  0  0  0  0  0  0
   53.5174   52.3175   94.8233 N   0  0  0  0  0  0  0  0  0  0  0  0
   53.3218   52.0124   96.1183 C   0  0  0  0  0  0  0  0  0  0  0  0
   52.7415   52.6044   97.2374 C   0  0  0  0  0  0  0  0  0  0  0  0
   52.7229   51.9563   98.4706 C   0  0  0  0  0  0  0  0  0  0  0  0
   53.2757   50.6945   98.6577 C   0  0  0  0  0  0  0  0  0  0  0  0
   53.8411   50.1321   97.5431 C   0  0  0  0  0  0  0  0  0  0  0  0
   53.8564   50.7716   96.3358 C   0  0  0  0  0  0  0  0  0  0  0  0
   54.4607   48.7944   97.6023 C   0  0  0  0  0  0  0  0  0  0  0  0
   54.6512   48.1954   98.7445 C   0  0  0  0  0  0  0  0  0  0  0  0
   56.9440   47.1438   95.5366 C   0  0  0  0  0  0  0  0  0  0  0  0
  1  2  1  0
  2  3  1  0
  3  4  1  0
  4  5  1  0
  3  6  1  0
  6  7  2  0
  6  8  1  0
  8  9  1  0
  9 10  1  0
 10 11  1  0
 11 12  1  0
 12 13  1  0
 13 14  2  0
 14 15  1  0
 15 16  1  0
 16 17  2  0
 17 18  1  0
 18 19  2  0
 19 20  1  0
 20 21  2  0
 20 22  1  0
 22 23  2  0
 10 24  1  0
 23  8  1  0
 22 11  1  0
 21 13  1  0
 21 16  1  0
M  END
$$$$
