
     RDKit          3D

 24 27  0  0  0  0  0  0  0  0999 V2000
   55.8199   44.0005  100.4722 C   0  0  0  0  0  0  0  0  0  0  0  0
   57.0066   44.6121   99.7518 C   0  0  0  0  0  0  0  0  0  0  0  0
   57.2949   45.9059  100.3800 N   0  0  0  0  0  0  0  0  0  0  0  0
   58.1991   45.8968  101.4983 C   0  0  0  0  0  0  0  0  0  0  0  0
   59.6358   46.1463  101.0323 C   0  0  0  0  0  0  0  0  0  0  0  0
   56.7094   47.0786   99.8903 C   0  0  0  0  0  0  0  0  0  0  0  0
   56.9662   48.1679  100.4907 O   0  0  0  0  0  0  0  0  0  0  0  0
   55.7997   47.1892   98.7204 C   0  0  0  0  0  0  0  0  0  0  0  0
   56.4144   46.7931   97.4473 C   0  0  0  0  0  0  0  0  0  0  0  0
   56.3276   47.7680   96.4056 N   0  0  0  0  0  0  0  0  0  0  0  0
   54.9728   48.2967   96.2745 C   0  0  0  0  0  0  0  0  0  0  0  0
   54.8796   49.0678   95.0232 C   0  0  0  0  0  0  0  0  0  0  0  0
   54.1991   50.3805   95.1105 C   0  0  0  0  0  0  0  0  0  0  0  0
   53.7792   51.3187   94.1700 C   0  0  0  0  0  0  0  0  0  0  0  0
   53.1933   52.3740   94.8172 N   0  0  0  0  0  0  0  0  0  0  0  0
   53.2316   52.1281   96.1387 C   0  0  0  0  0  0  0  0  0  0  0  0
   52.8267   52.7570   97.3135 C   0  0  0  0  0  0  0  0  0  0  0  0
   53.0422   52.1709   98.5589 C   0  0  0  0  0  0  0  0  0  0  0  0
   53.6671   50.9375   98.7040 C   0  0  0  0  0  0  0  0  0  0  0  0
   54.0570   50.3379   97.5349 C   0  0  0  0  0  0  0  0  0  0  0  0
   53.8429   50.9166   96.3159 C   0  0  0  0  0  0  0  0  0  0  0  0
   54.7290   49.0245   97.5460 C   0  0  0  0  0  0  0  0  0  0  0  0
   55.1331   48.4893   98.6641 C   0  0  0  0  0  0  0  0  0  0  0  0
   56.8889   47.3499   95.1609 C   0  0  0  0  0  0  0  0  0  0  0  0
  1  2  1  0
  2  3  1  0
  3  4  1  0
  4  5  1  0
  3  6  1  0
  6  7  2  0
  6  8  1  0
  8  9  1  0
  9 10  1  0
 10 11  1  0
 11 12  1  0
 12 13  1  0
 13 14  2  0
 14 15  1  0
 15 16  1  0
 16 17  2  0
 17 18  1  0
 18 19  2  0
 19 20  1  0
 20 21  2  0
 20 22  1  0
 22 23  2  0
 10 24  1  0
 23  8  1  0
 22 11  1  0
 21 13  1  0
 21 16  1  0
M  END
$$$$
