
     RDKit          3D

 24 27  0  0  0  0  0  0  0  0999 V2000
   55.6590   44.0373  100.6775 C   0  0  0  0  0  0  0  0  0  0  0  0
   56.8930   44.7227  100.1217 C   0  0  0  0  0  0  0  0  0  0  0  0
   57.0059   46.0354  100.7663 N   0  0  0  0  0  0  0  0  0  0  0  0
   57.7772   46.0986  101.9786 C   0  0  0  0  0  0  0  0  0  0  0  0
   59.2536   45.8106  101.6941 C   0  0  0  0  0  0  0  0  0  0  0  0
   56.3880   47.1577  100.2038 C   0  0  0  0  0  0  0  0  0  0  0  0
   56.5034   48.2676  100.8102 O   0  0  0  0  0  0  0  0  0  0  0  0
   55.5937   47.1916   98.9482 C   0  0  0  0  0  0  0  0  0  0  0  0
   56.3187   46.6996   97.7702 C   0  0  0  0  0  0  0  0  0  0  0  0
   56.3449   47.5976   96.6585 N   0  0  0  0  0  0  0  0  0  0  0  0
   55.0166   48.1271   96.3628 C   0  0  0  0  0  0  0  0  0  0  0  0
   55.0529   48.8069   95.0568 C   0  0  0  0  0  0  0  0  0  0  0  0
   54.3875   50.1282   94.9860 C   0  0  0  0  0  0  0  0  0  0  0  0
   54.0720   50.9999   93.9460 C   0  0  0  0  0  0  0  0  0  0  0  0
   53.4443   52.1041   94.4584 N   0  0  0  0  0  0  0  0  0  0  0  0
   53.3549   51.9537   95.7917 C   0  0  0  0  0  0  0  0  0  0  0  0
   52.8515   52.6691   96.8754 C   0  0  0  0  0  0  0  0  0  0  0  0
   52.9404   52.1724   98.1741 C   0  0  0  0  0  0  0  0  0  0  0  0
   53.5299   50.9473   98.4646 C   0  0  0  0  0  0  0  0  0  0  0  0
   54.0183   50.2617   97.3831 C   0  0  0  0  0  0  0  0  0  0  0  0
   53.9283   50.7529   96.1114 C   0  0  0  0  0  0  0  0  0  0  0  0
   54.6660   48.9467   97.5507 C   0  0  0  0  0  0  0  0  0  0  0  0
   54.9553   48.4900   98.7372 C   0  0  0  0  0  0  0  0  0  0  0  0
   57.0137   47.0860   95.5051 C   0  0  0  0  0  0  0  0  0  0  0  0
  1  2  1  0
  2  3  1  0
  3  4  1  0
  4  5  1  0
  3  6  1  0
  6  7  2  0
  6  8  1  0
  8  9  1  0
  9 10  1  0
 10 11  1  0
 11 12  1  0
 12 13  1  0
 13 14  2  0
 14 15  1  0
 15 16  1  0
 16 17  2  0
 17 18  1  0
 18 19  2  0
 19 20  1  0
 20 21  2  0
 20 22  1  0
 22 23  2  0
 10 24  1  0
 23  8  1  0
 22 11  1  0
 21 13  1  0
 21 16  1  0
M  END
$$$$
