
     RDKit          3D

 24 27  0  0  0  0  0  0  0  0999 V2000
   56.1506   45.4526  103.2308 C   0  0  0  0  0  0  0  0  0  0  0  0
   57.2423   45.6156  102.1901 C   0  0  0  0  0  0  0  0  0  0  0  0
   56.6058   45.6202  100.8686 N   0  0  0  0  0  0  0  0  0  0  0  0
   56.4739   44.3496  100.2078 C   0  0  0  0  0  0  0  0  0  0  0  0
   57.8404   43.8389   99.7433 C   0  0  0  0  0  0  0  0  0  0  0  0
   56.1517   46.8171  100.3038 C   0  0  0  0  0  0  0  0  0  0  0  0
   56.3624   47.8944  100.9425 O   0  0  0  0  0  0  0  0  0  0  0  0
   55.4337   46.9666   99.0113 C   0  0  0  0  0  0  0  0  0  0  0  0
   56.2326   46.5910   97.8382 C   0  0  0  0  0  0  0  0  0  0  0  0
   56.3167   47.5903   96.8197 N   0  0  0  0  0  0  0  0  0  0  0  0
   55.0036   48.1405   96.4954 C   0  0  0  0  0  0  0  0  0  0  0  0
   55.1116   48.9409   95.2639 C   0  0  0  0  0  0  0  0  0  0  0  0
   54.4392   50.2606   95.2778 C   0  0  0  0  0  0  0  0  0  0  0  0
   54.1783   51.2256   94.3074 C   0  0  0  0  0  0  0  0  0  0  0  0
   53.5107   52.2740   94.8828 N   0  0  0  0  0  0  0  0  0  0  0  0
   53.3431   51.9977   96.1881 C   0  0  0  0  0  0  0  0  0  0  0  0
   52.7690   52.6055   97.3019 C   0  0  0  0  0  0  0  0  0  0  0  0
   52.7847   51.9884   98.5510 C   0  0  0  0  0  0  0  0  0  0  0  0
   53.3673   50.7436   98.7599 C   0  0  0  0  0  0  0  0  0  0  0  0
   53.9259   50.1652   97.6501 C   0  0  0  0  0  0  0  0  0  0  0  0
   53.9076   50.7742   96.4272 C   0  0  0  0  0  0  0  0  0  0  0  0
   54.5748   48.8427   97.7319 C   0  0  0  0  0  0  0  0  0  0  0  0
   54.7969   48.2768   98.8853 C   0  0  0  0  0  0  0  0  0  0  0  0
   57.0582   47.1927   95.6658 C   0  0  0  0  0  0  0  0  0  0  0  0
  1  2  1  0
  2  3  1  0
  3  4  1  0
  4  5  1  0
  3  6  1  0
  6  7  2  0
  6  8  1  0
  8  9  1  0
  9 10  1  0
 10 11  1  0
 11 12  1  0
 12 13  1  0
 13 14  2  0
 14 15  1  0
 15 16  1  0
 16 17  2  0
 17 18  1  0
 18 19  2  0
 19 20  1  0
 20 21  2  0
 20 22  1  0
 22 23  2  0
 10 24  1  0
 23  8  1  0
 22 11  1  0
 21 13  1  0
 21 16  1  0
M  END
$$$$
