
     RDKit          3D

 23 26  0  0  0  0  0  0  0  0999 V2000
    6.3868    1.5941    9.1746 O   0  0  0  0  0  0  0  0  0  0  0  0
    6.6453    1.4850    7.8245 C   0  0  0  0  0  0  0  0  0  0  0  0
    5.9302    0.2392    7.3094 C   0  0  2  0  0  0  0  0  0  0  0  0
    6.5647   -0.2298    6.0756 C   0  0  0  0  0  0  0  0  0  0  0  0
    7.2072   -1.4438    5.9568 C   0  0  0  0  0  0  0  0  0  0  0  0
    7.7952   -1.8532    4.7685 C   0  0  0  0  0  0  0  0  0  0  0  0
    7.7567   -1.0493    3.6501 C   0  0  0  0  0  0  0  0  0  0  0  0
    7.1267    0.1570    3.7422 C   0  0  0  0  0  0  0  0  0  0  0  0
    6.5443    0.5582    4.9259 C   0  0  0  0  0  0  0  0  0  0  0  0
    4.4811    0.5062    7.1723 C   0  0  0  0  0  0  0  0  0  0  0  0
    3.9805    1.6324    7.3662 O   0  0  0  0  0  0  0  0  0  0  0  0
    3.6521   -0.5275    6.8171 O   0  0  0  0  0  0  0  0  0  0  0  0
    2.2701   -0.3724    6.5483 C   0  0  2  0  0  0  0  0  0  0  0  0
    1.4697   -1.2571    7.4485 C   0  0  0  0  0  0  0  0  0  0  0  0
    0.2126   -1.7860    6.8537 C   0  0  2  0  0  0  0  0  0  0  0  0
    0.5131   -3.1050    6.1917 C   0  0  2  0  0  0  0  0  0  0  0  0
    0.9083   -2.6683    4.7808 C   0  0  2  0  0  0  0  0  0  0  0  0
    0.6876   -1.1567    4.7582 C   0  0  2  0  0  0  0  0  0  0  0  0
    1.9827   -0.5144    5.1018 C   0  0  0  0  0  0  0  0  0  0  0  0
   -0.3206   -0.9833    5.7826 N   0  0  0  0  0  4  0  0  0  0  0  0
   -0.5211    0.3985    6.1472 C   0  0  0  0  0  0  0  0  0  0  0  0
   -1.5800   -1.5205    5.3573 C   0  0  0  0  0  0  0  0  0  0  0  0
   -0.1415   -3.5000    5.0581 O   0  0  0  0  0  0  0  0  0  0  0  0
  1  2  1  0
  3  2  1  6
  3  4  1  0
  4  5  2  0
  5  6  1  0
  6  7  2  0
  7  8  1  0
  8  9  2  0
  3 10  1  0
 10 11  2  0
 10 12  1  0
 13 12  1  6
 13 14  1  0
 15 14  1  6
 15 16  1  0
 16 17  1  0
 17 18  1  0
 18 19  1  1
 18 20  1  0
 20 21  1  0
 20 22  1  0
 17 23  1  6
  9  4  1  0
 19 13  1  0
 20 15  1  0
 16 23  1  6
M  CHG  1  20   1
M  END
$$$$
