
     RDKit          3D

 23 26  0  0  0  0  0  0  0  0999 V2000
    6.7846    2.2815    6.4722 O   0  0  0  0  0  0  0  0  0  0  0  0
    6.7410    1.3755    5.4335 C   0  0  0  0  0  0  0  0  0  0  0  0
    5.6161    0.3854    5.7220 C   0  0  2  0  0  0  0  0  0  0  0  0
    5.6497   -0.7097    4.7502 C   0  0  0  0  0  0  0  0  0  0  0  0
    5.8405   -2.0320    5.0905 C   0  0  0  0  0  0  0  0  0  0  0  0
    5.8641   -3.0418    4.1391 C   0  0  0  0  0  0  0  0  0  0  0  0
    5.6953   -2.7540    2.8023 C   0  0  0  0  0  0  0  0  0  0  0  0
    5.5049   -1.4528    2.4399 C   0  0  0  0  0  0  0  0  0  0  0  0
    5.4824   -0.4538    3.3902 C   0  0  0  0  0  0  0  0  0  0  0  0
    4.3185    1.0943    5.7793 C   0  0  0  0  0  0  0  0  0  0  0  0
    4.0113    2.0061    4.9850 O   0  0  0  0  0  0  0  0  0  0  0  0
    3.4141    0.7348    6.7461 O   0  0  0  0  0  0  0  0  0  0  0  0
    2.0625    0.4068    6.4779 C   0  0  2  0  0  0  0  0  0  0  0  0
    1.6699   -0.8165    7.2414 C   0  0  0  0  0  0  0  0  0  0  0  0
    0.6731   -1.6877    6.5624 C   0  0  2  0  0  0  0  0  0  0  0  0
    1.4114   -2.7092    5.7380 C   0  0  2  0  0  0  0  0  0  0  0  0
    1.5732   -1.9817    4.4029 C   0  0  2  0  0  0  0  0  0  0  0  0
    0.8162   -0.6659    4.5753 C   0  0  2  0  0  0  0  0  0  0  0  0
    1.7987    0.3559    5.0208 C   0  0  0  0  0  0  0  0  0  0  0  0
   -0.1513   -1.0056    5.5974 N   0  0  0  0  0  4  0  0  0  0  0  0
   -0.8294    0.1484    6.1368 C   0  0  0  0  0  0  0  0  0  0  0  0
   -1.1417   -1.9070    5.0852 C   0  0  0  0  0  0  0  0  0  0  0  0
    0.9085   -3.1677    4.5520 O   0  0  0  0  0  0  0  0  0  0  0  0
  1  2  1  0
  3  2  1  6
  3  4  1  0
  4  5  2  0
  5  6  1  0
  6  7  2  0
  7  8  1  0
  8  9  2  0
  3 10  1  0
 10 11  2  0
 10 12  1  0
 13 12  1  6
 13 14  1  0
 15 14  1  6
 15 16  1  0
 16 17  1  0
 17 18  1  0
 18 19  1  1
 18 20  1  0
 20 21  1  0
 20 22  1  0
 17 23  1  6
  9  4  1  0
 19 13  1  0
 20 15  1  0
 16 23  1  6
M  CHG  1  20   1
M  END
$$$$
