
     RDKit          3D

 23 26  0  0  0  0  0  0  0  0999 V2000
    5.6984    0.7332    3.0143 O   0  0  0  0  0  0  0  0  0  0  0  0
    6.2823    0.2415    4.1627 C   0  0  0  0  0  0  0  0  0  0  0  0
    5.4099    0.6529    5.3453 C   0  0  2  0  0  0  0  0  0  0  0  0
    6.1008    0.3632    6.6036 C   0  0  0  0  0  0  0  0  0  0  0  0
    6.2042   -0.8986    7.1494 C   0  0  0  0  0  0  0  0  0  0  0  0
    6.8695   -1.1325    8.3443 C   0  0  0  0  0  0  0  0  0  0  0  0
    7.4584   -0.0971    9.0369 C   0  0  0  0  0  0  0  0  0  0  0  0
    7.3699    1.1611    8.5176 C   0  0  0  0  0  0  0  0  0  0  0  0
    6.7073    1.3870    7.3296 C   0  0  0  0  0  0  0  0  0  0  0  0
    4.0763    0.0209    5.2362 C   0  0  0  0  0  0  0  0  0  0  0  0
    3.9189   -1.1704    4.9005 O   0  0  0  0  0  0  0  0  0  0  0  0
    2.9653    0.7756    5.5156 O   0  0  0  0  0  0  0  0  0  0  0  0
    1.6623    0.2381    5.6547 C   0  0  2  0  0  0  0  0  0  0  0  0
    1.5996   -0.6523    6.8534 C   0  0  0  0  0  0  0  0  0  0  0  0
    0.6699   -1.8073    6.7299 C   0  0  2  0  0  0  0  0  0  0  0  0
    1.4334   -2.9804    6.1741 C   0  0  2  0  0  0  0  0  0  0  0  0
    1.2667   -2.7816    4.6673 C   0  0  2  0  0  0  0  0  0  0  0  0
    0.3367   -1.5776    4.5278 C   0  0  2  0  0  0  0  0  0  0  0  0
    1.1918   -0.3705    4.3883 C   0  0  0  0  0  0  0  0  0  0  0  0
   -0.3937   -1.6137    5.7773 N   0  0  0  0  0  4  0  0  0  0  0  0
   -1.1641   -0.4166    6.0140 C   0  0  0  0  0  0  0  0  0  0  0  0
   -1.2867   -2.7347    5.8159 C   0  0  0  0  0  0  0  0  0  0  0  0
    0.8392   -3.8904    5.3444 O   0  0  0  0  0  0  0  0  0  0  0  0
  1  2  1  0
  3  2  1  6
  3  4  1  0
  4  5  2  0
  5  6  1  0
  6  7  2  0
  7  8  1  0
  8  9  2  0
  3 10  1  0
 10 11  2  0
 10 12  1  0
 13 12  1  6
 13 14  1  0
 15 14  1  6
 15 16  1  0
 16 17  1  0
 17 18  1  0
 18 19  1  1
 18 20  1  0
 20 21  1  0
 20 22  1  0
 17 23  1  1
  9  4  1  0
 19 13  1  0
 20 15  1  0
 16 23  1  1
M  CHG  1  20   1
M  END
$$$$
