
     RDKit          3D

 23 26  0  0  0  0  0  0  0  0999 V2000
    6.6668    2.3421    6.1110 O   0  0  0  0  0  0  0  0  0  0  0  0
    6.7826    1.2719    5.2491 C   0  0  0  0  0  0  0  0  0  0  0  0
    5.6897    0.2666    5.6005 C   0  0  2  0  0  0  0  0  0  0  0  0
    5.7148   -0.8528    4.6565 C   0  0  0  0  0  0  0  0  0  0  0  0
    6.0081   -2.1516    5.0139 C   0  0  0  0  0  0  0  0  0  0  0  0
    6.0198   -3.1858    4.0890 C   0  0  0  0  0  0  0  0  0  0  0  0
    5.7347   -2.9473    2.7622 C   0  0  0  0  0  0  0  0  0  0  0  0
    5.4413   -1.6703    2.3833 C   0  0  0  0  0  0  0  0  0  0  0  0
    5.4313   -0.6468    3.3073 C   0  0  0  0  0  0  0  0  0  0  0  0
    4.3795    0.9496    5.6833 C   0  0  0  0  0  0  0  0  0  0  0  0
    3.9839    1.7586    4.8198 O   0  0  0  0  0  0  0  0  0  0  0  0
    3.5645    0.6828    6.7540 O   0  0  0  0  0  0  0  0  0  0  0  0
    2.2500    0.1689    6.6350 C   0  0  2  0  0  0  0  0  0  0  0  0
    2.2463   -1.3000    6.9102 C   0  0  0  0  0  0  0  0  0  0  0  0
    1.2404   -2.0807    6.1405 C   0  0  2  0  0  0  0  0  0  0  0  0
    1.8753   -2.5476    4.8571 C   0  0  2  0  0  0  0  0  0  0  0  0
    1.5798   -1.3805    3.9147 C   0  0  2  0  0  0  0  0  0  0  0  0
    0.7158   -0.4213    4.7319 C   0  0  2  0  0  0  0  0  0  0  0  0
    1.6261    0.5749    5.3539 C   0  0  0  0  0  0  0  0  0  0  0  0
    0.1056   -1.3118    5.6967 N   0  0  0  0  0  4  0  0  0  0  0  0
   -0.5645   -0.6104    6.7651 C   0  0  0  0  0  0  0  0  0  0  0  0
   -0.8465   -2.1771    5.0639 C   0  0  0  0  0  0  0  0  0  0  0  0
    1.1510   -2.6619    3.7030 O   0  0  0  0  0  0  0  0  0  0  0  0
  1  2  1  0
  3  2  1  6
  3  4  1  0
  4  5  2  0
  5  6  1  0
  6  7  2  0
  7  8  1  0
  8  9  2  0
  3 10  1  0
 10 11  2  0
 10 12  1  0
 13 12  1  6
 13 14  1  0
 15 14  1  6
 15 16  1  0
 16 17  1  0
 17 18  1  0
 18 19  1  1
 18 20  1  0
 20 21  1  0
 20 22  1  0
 17 23  1  6
  9  4  1  0
 19 13  1  0
 20 15  1  0
 16 23  1  6
M  CHG  1  20   1
M  END
$$$$
