
     RDKit          3D

 23 26  0  0  0  0  0  0  0  0999 V2000
    6.1630    2.3345    6.4837 O   0  0  0  0  0  0  0  0  0  0  0  0
    6.4806    1.2575    5.6833 C   0  0  0  0  0  0  0  0  0  0  0  0
    5.5155    0.1238    6.0182 C   0  0  2  0  0  0  0  0  0  0  0  0
    5.9626   -1.1193    5.3862 C   0  0  0  0  0  0  0  0  0  0  0  0
    6.3511   -1.2128    4.0667 C   0  0  0  0  0  0  0  0  0  0  0  0
    6.7706   -2.4102    3.5050 C   0  0  0  0  0  0  0  0  0  0  0  0
    6.8141   -3.5639    4.2571 C   0  0  0  0  0  0  0  0  0  0  0  0
    6.4347   -3.4975    5.5656 C   0  0  0  0  0  0  0  0  0  0  0  0
    6.0187   -2.3045    6.1179 C   0  0  0  0  0  0  0  0  0  0  0  0
    4.1329    0.5123    5.6613 C   0  0  0  0  0  0  0  0  0  0  0  0
    3.7822    0.7606    4.4899 O   0  0  0  0  0  0  0  0  0  0  0  0
    3.1963    0.6036    6.6594 O   0  0  0  0  0  0  0  0  0  0  0  0
    1.8819    0.0861    6.5563 C   0  0  2  0  0  0  0  0  0  0  0  0
    1.8912   -1.3895    6.7928 C   0  0  0  0  0  0  0  0  0  0  0  0
    0.8719   -2.1551    6.0256 C   0  0  2  0  0  0  0  0  0  0  0  0
    1.4800   -2.5850    4.7166 C   0  0  2  0  0  0  0  0  0  0  0  0
    1.1580   -1.3953    3.8119 C   0  0  2  0  0  0  0  0  0  0  0  0
    0.3082   -0.4623    4.6730 C   0  0  2  0  0  0  0  0  0  0  0  0
    1.2275    0.5221    5.3005 C   0  0  0  0  0  0  0  0  0  0  0  0
   -0.2761   -1.3808    5.6275 N   0  0  0  0  0  4  0  0  0  0  0  0
   -0.9254   -0.7111    6.7286 C   0  0  0  0  0  0  0  0  0  0  0  0
   -1.2381   -2.2342    4.9936 C   0  0  0  0  0  0  0  0  0  0  0  0
    0.7306   -2.6729    3.5763 O   0  0  0  0  0  0  0  0  0  0  0  0
  1  2  1  0
  3  2  1  6
  3  4  1  0
  4  5  2  0
  5  6  1  0
  6  7  2  0
  7  8  1  0
  8  9  2  0
  3 10  1  0
 10 11  2  0
 10 12  1  0
 13 12  1  6
 13 14  1  0
 15 14  1  6
 15 16  1  0
 16 17  1  0
 17 18  1  0
 18 19  1  1
 18 20  1  0
 20 21  1  0
 20 22  1  0
 17 23  1  6
  9  4  1  0
 19 13  1  0
 20 15  1  0
 16 23  1  6
M  CHG  1  20   1
M  END
$$$$
