
     RDKit          3D

 23 26  0  0  0  0  0  0  0  0999 V2000
    6.3824    1.6662    6.9223 O   0  0  0  0  0  0  0  0  0  0  0  0
    6.4259    1.0645    5.6823 C   0  0  0  0  0  0  0  0  0  0  0  0
    5.7242   -0.2862    5.7918 C   0  0  2  0  0  0  0  0  0  0  0  0
    5.7826   -0.9878    4.5076 C   0  0  0  0  0  0  0  0  0  0  0  0
    5.9358   -2.3525    4.3851 C   0  0  0  0  0  0  0  0  0  0  0  0
    5.9848   -2.9805    3.1488 C   0  0  0  0  0  0  0  0  0  0  0  0
    5.8806   -2.2518    1.9841 C   0  0  0  0  0  0  0  0  0  0  0  0
    5.7283   -0.8997    2.0786 C   0  0  0  0  0  0  0  0  0  0  0  0
    5.6803   -0.2814    3.3103 C   0  0  0  0  0  0  0  0  0  0  0  0
    4.3507   -0.1038    6.3114 C   0  0  0  0  0  0  0  0  0  0  0  0
    3.7279    0.9727    6.2108 O   0  0  0  0  0  0  0  0  0  0  0  0
    3.7350   -1.1621    6.9301 O   0  0  0  0  0  0  0  0  0  0  0  0
    2.3749   -1.5062    6.7352 C   0  0  2  0  0  0  0  0  0  0  0  0
    2.0301   -1.4330    5.2828 C   0  0  0  0  0  0  0  0  0  0  0  0
    0.6322   -1.0165    4.9894 C   0  0  2  0  0  0  0  0  0  0  0  0
    0.5984    0.4822    4.8454 C   0  0  2  0  0  0  0  0  0  0  0  0
    0.3508    0.9332    6.2852 C   0  0  2  0  0  0  0  0  0  0  0  0
    0.1633   -0.3594    7.0777 C   0  0  2  0  0  0  0  0  0  0  0  0
    1.4884   -0.7333    7.6363 C   0  0  0  0  0  0  0  0  0  0  0  0
   -0.3005   -1.2752    6.0567 N   0  0  0  0  0  4  0  0  0  0  0  0
   -0.3043   -2.6506    6.4936 C   0  0  0  0  0  0  0  0  0  0  0  0
   -1.6273   -0.9378    5.6311 C   0  0  0  0  0  0  0  0  0  0  0  0
   -0.4874    1.2129    5.2413 O   0  0  0  0  0  0  0  0  0  0  0  0
  1  2  1  0
  3  2  1  6
  3  4  1  0
  4  5  2  0
  5  6  1  0
  6  7  2  0
  7  8  1  0
  8  9  2  0
  3 10  1  0
 10 11  2  0
 10 12  1  0
 13 12  1  6
 13 14  1  0
 15 14  1  1
 15 16  1  0
 16 17  1  0
 17 18  1  0
 18 19  1  6
 18 20  1  0
 20 21  1  0
 20 22  1  0
 17 23  1  6
  9  4  1  0
 19 13  1  0
 20 15  1  0
 16 23  1  6
M  CHG  1  20   1
M  END
$$$$
