
     RDKit          3D

 23 26  0  0  0  0  0  0  0  0999 V2000
    6.5132    1.9414    6.6013 O   0  0  0  0  0  0  0  0  0  0  0  0
    6.5735    1.0077    5.5883 C   0  0  0  0  0  0  0  0  0  0  0  0
    5.4037    0.0445    5.7684 C   0  0  2  0  0  0  0  0  0  0  0  0
    5.4591   -1.0082    4.7517 C   0  0  0  0  0  0  0  0  0  0  0  0
    5.6551   -0.7681    3.4083 C   0  0  0  0  0  0  0  0  0  0  0  0
    5.7033   -1.7942    2.4756 C   0  0  0  0  0  0  0  0  0  0  0  0
    5.5547   -3.1075    2.8650 C   0  0  0  0  0  0  0  0  0  0  0  0
    5.3594   -3.3713    4.1889 C   0  0  0  0  0  0  0  0  0  0  0  0
    5.3126   -2.3471    5.1110 C   0  0  0  0  0  0  0  0  0  0  0  0
    4.1275    0.7934    5.7846 C   0  0  0  0  0  0  0  0  0  0  0  0
    3.8223    1.6268    4.9077 O   0  0  0  0  0  0  0  0  0  0  0  0
    3.2417    0.5625    6.8063 O   0  0  0  0  0  0  0  0  0  0  0  0
    1.8799    0.2274    6.6079 C   0  0  2  0  0  0  0  0  0  0  0  0
    1.6127   -1.1541    7.1115 C   0  0  0  0  0  0  0  0  0  0  0  0
    0.5753   -1.9080    6.3570 C   0  0  2  0  0  0  0  0  0  0  0  0
    1.2503   -2.6798    5.2540 C   0  0  2  0  0  0  0  0  0  0  0  0
    1.2411   -1.6679    4.1079 C   0  0  2  0  0  0  0  0  0  0  0  0
    0.4664   -0.4666    4.6472 C   0  0  2  0  0  0  0  0  0  0  0  0
    1.4592    0.4846    5.2107 C   0  0  0  0  0  0  0  0  0  0  0  0
   -0.3715   -1.0766    5.6581 N   0  0  0  0  0  4  0  0  0  0  0  0
   -1.0223   -0.1094    6.5087 C   0  0  0  0  0  0  0  0  0  0  0  0
   -1.3832   -1.8963    5.0579 C   0  0  0  0  0  0  0  0  0  0  0  0
    0.6348   -2.8926    4.0518 O   0  0  0  0  0  0  0  0  0  0  0  0
  1  2  1  0
  3  2  1  6
  3  4  1  0
  4  5  2  0
  5  6  1  0
  6  7  2  0
  7  8  1  0
  8  9  2  0
  3 10  1  0
 10 11  2  0
 10 12  1  0
 13 12  1  6
 13 14  1  0
 15 14  1  6
 15 16  1  0
 16 17  1  0
 17 18  1  0
 18 19  1  1
 18 20  1  0
 20 21  1  0
 20 22  1  0
 17 23  1  6
  9  4  1  0
 19 13  1  0
 20 15  1  0
 16 23  1  6
M  CHG  1  20   1
M  END
$$$$
