
     RDKit          3D

 23 26  0  0  0  0  0  0  0  0999 V2000
    5.8668   -1.2211    8.5048 O   0  0  0  0  0  0  0  0  0  0  0  0
    6.2828   -0.4701    7.4257 C   0  0  0  0  0  0  0  0  0  0  0  0
    5.1553   -0.4625    6.3974 C   0  0  2  0  0  0  0  0  0  0  0  0
    5.7114   -0.4804    5.0426 C   0  0  0  0  0  0  0  0  0  0  0  0
    5.6829   -1.5833    4.2159 C   0  0  0  0  0  0  0  0  0  0  0  0
    6.2196   -1.5596    2.9366 C   0  0  0  0  0  0  0  0  0  0  0  0
    6.8081   -0.4166    2.4409 C   0  0  0  0  0  0  0  0  0  0  0  0
    6.8489    0.6884    3.2396 C   0  0  0  0  0  0  0  0  0  0  0  0
    6.3137    0.6584    4.5101 C   0  0  0  0  0  0  0  0  0  0  0  0
    4.2422    0.6734    6.6538 C   0  0  0  0  0  0  0  0  0  0  0  0
    4.3295    1.3943    7.6684 O   0  0  0  0  0  0  0  0  0  0  0  0
    3.2578    0.9463    5.7383 O   0  0  0  0  0  0  0  0  0  0  0  0
    1.8978    0.5915    5.9141 C   0  0  2  0  0  0  0  0  0  0  0  0
    1.7225   -0.1477    7.2011 C   0  0  0  0  0  0  0  0  0  0  0  0
    0.6572   -1.1863    7.1888 C   0  0  2  0  0  0  0  0  0  0  0  0
    1.2709   -2.4981    6.7756 C   0  0  2  0  0  0  0  0  0  0  0  0
    1.1336   -2.4465    5.2537 C   0  0  2  0  0  0  0  0  0  0  0  0
    0.3601   -1.1599    4.9698 C   0  0  2  0  0  0  0  0  0  0  0  0
    1.3586   -0.0896    4.7139 C   0  0  0  0  0  0  0  0  0  0  0  0
   -0.3720   -0.9690    6.2041 N   0  0  0  0  0  4  0  0  0  0  0  0
   -0.9887    0.3324    6.2975 C   0  0  0  0  0  0  0  0  0  0  0  0
   -1.3971   -1.9607    6.3499 C   0  0  0  0  0  0  0  0  0  0  0  0
    0.5704   -3.4135    6.0401 O   0  0  0  0  0  0  0  0  0  0  0  0
  1  2  1  0
  3  2  1  1
  3  4  1  0
  4  5  2  0
  5  6  1  0
  6  7  2  0
  7  8  1  0
  8  9  2  0
  3 10  1  0
 10 11  2  0
 10 12  1  0
 13 12  1  6
 13 14  1  0
 15 14  1  6
 15 16  1  0
 16 17  1  0
 17 18  1  0
 18 19  1  1
 18 20  1  0
 20 21  1  0
 20 22  1  0
 17 23  1  1
  9  4  1  0
 19 13  1  0
 20 15  1  0
 16 23  1  1
M  CHG  1  20   1
M  END
$$$$
