
     RDKit          3D

 23 26  0  0  0  0  0  0  0  0999 V2000
    6.5963    2.2627    6.4500 O   0  0  0  0  0  0  0  0  0  0  0  0
    6.5462    1.4954    5.3054 C   0  0  0  0  0  0  0  0  0  0  0  0
    5.5418    0.3705    5.5387 C   0  0  2  0  0  0  0  0  0  0  0  0
    5.6507   -0.6287    4.4735 C   0  0  0  0  0  0  0  0  0  0  0  0
    5.4522   -0.3512    3.1378 C   0  0  0  0  0  0  0  0  0  0  0  0
    5.5665   -1.3265    2.1575 C   0  0  0  0  0  0  0  0  0  0  0  0
    5.8869   -2.6247    2.4897 C   0  0  0  0  0  0  0  0  0  0  0  0
    6.0883   -2.9248    3.8049 C   0  0  0  0  0  0  0  0  0  0  0  0
    5.9733   -1.9511    4.7744 C   0  0  0  0  0  0  0  0  0  0  0  0
    4.1810    0.9299    5.6967 C   0  0  0  0  0  0  0  0  0  0  0  0
    3.8183    1.9895    5.1469 O   0  0  0  0  0  0  0  0  0  0  0  0
    3.2792    0.2560    6.4806 O   0  0  0  0  0  0  0  0  0  0  0  0
    1.8863    0.2200    6.2261 C   0  0  2  0  0  0  0  0  0  0  0  0
    1.1883   -0.5518    7.2989 C   0  0  0  0  0  0  0  0  0  0  0  0
   -0.0133   -1.3056    6.8498 C   0  0  2  0  0  0  0  0  0  0  0  0
    0.4145   -2.6902    6.4400 C   0  0  2  0  0  0  0  0  0  0  0  0
    0.7506   -2.4931    4.9615 C   0  0  2  0  0  0  0  0  0  0  0  0
    0.3765   -1.0426    4.6608 C   0  0  2  0  0  0  0  0  0  0  0  0
    1.6022   -0.2222    4.8408 C   0  0  0  0  0  0  0  0  0  0  0  0
   -0.6351   -0.7778    5.6620 N   0  0  0  0  0  4  0  0  0  0  0  0
   -0.9725    0.6215    5.7653 C   0  0  0  0  0  0  0  0  0  0  0  0
   -1.8368   -1.5077    5.3809 C   0  0  0  0  0  0  0  0  0  0  0  0
   -0.2063   -3.3562    5.4198 O   0  0  0  0  0  0  0  0  0  0  0  0
  1  2  1  0
  3  2  1  6
  3  4  1  0
  4  5  2  0
  5  6  1  0
  6  7  2  0
  7  8  1  0
  8  9  2  0
  3 10  1  0
 10 11  2  0
 10 12  1  0
 13 12  1  1
 13 14  1  0
 15 14  1  6
 15 16  1  0
 16 17  1  0
 17 18  1  0
 18 19  1  1
 18 20  1  0
 20 21  1  0
 20 22  1  0
 17 23  1  6
  9  4  1  0
 19 13  1  0
 20 15  1  0
 16 23  1  6
M  CHG  1  20   1
M  END
$$$$
