
     RDKit          3D

 23 26  0  0  0  0  0  0  0  0999 V2000
    6.8542    1.3666    7.7944 O   0  0  0  0  0  0  0  0  0  0  0  0
    6.9673    0.7954    6.5444 C   0  0  0  0  0  0  0  0  0  0  0  0
    5.7620   -0.1167    6.3351 C   0  0  2  0  0  0  0  0  0  0  0  0
    6.0233   -1.0500    5.2371 C   0  0  0  0  0  0  0  0  0  0  0  0
    6.5164   -0.6692    4.0072 C   0  0  0  0  0  0  0  0  0  0  0  0
    6.7525   -1.5852    2.9921 C   0  0  0  0  0  0  0  0  0  0  0  0
    6.4987   -2.9263    3.1806 C   0  0  0  0  0  0  0  0  0  0  0  0
    6.0104   -3.3284    4.3890 C   0  0  0  0  0  0  0  0  0  0  0  0
    5.7778   -2.4132    5.3939 C   0  0  0  0  0  0  0  0  0  0  0  0
    4.5377    0.6940    6.1519 C   0  0  0  0  0  0  0  0  0  0  0  0
    4.4274    1.5584    5.2589 O   0  0  0  0  0  0  0  0  0  0  0  0
    3.4786    0.4877    6.9990 O   0  0  0  0  0  0  0  0  0  0  0  0
    2.1681    0.1766    6.5607 C   0  0  2  0  0  0  0  0  0  0  0  0
    1.6981   -1.0876    7.2046 C   0  0  0  0  0  0  0  0  0  0  0  0
    0.7898   -1.9182    6.3687 C   0  0  2  0  0  0  0  0  0  0  0  0
    1.6227   -2.8921    5.5776 C   0  0  2  0  0  0  0  0  0  0  0  0
    1.9311   -2.0906    4.3126 C   0  0  2  0  0  0  0  0  0  0  0  0
    1.1521   -0.7859    4.4715 C   0  0  2  0  0  0  0  0  0  0  0  0
    2.0719    0.2082    5.0825 C   0  0  0  0  0  0  0  0  0  0  0  0
    0.0766   -1.1820    5.3561 N   0  0  0  0  0  4  0  0  0  0  0  0
   -0.6648   -0.0597    5.8788 C   0  0  0  0  0  0  0  0  0  0  0  0
   -0.8441   -2.0522    4.6847 C   0  0  0  0  0  0  0  0  0  0  0  0
    1.2604   -3.2826    4.3183 O   0  0  0  0  0  0  0  0  0  0  0  0
  1  2  1  0
  3  2  1  6
  3  4  1  0
  4  5  2  0
  5  6  1  0
  6  7  2  0
  7  8  1  0
  8  9  2  0
  3 10  1  0
 10 11  2  0
 10 12  1  0
 13 12  1  6
 13 14  1  0
 15 14  1  6
 15 16  1  0
 16 17  1  0
 17 18  1  0
 18 19  1  1
 18 20  1  0
 20 21  1  0
 20 22  1  0
 17 23  1  6
  9  4  1  0
 19 13  1  0
 20 15  1  0
 16 23  1  6
M  CHG  1  20   1
M  END
$$$$
