
     RDKit          3D

 23 26  0  0  0  0  0  0  0  0999 V2000
    6.4427    1.8311    6.7126 O   0  0  0  0  0  0  0  0  0  0  0  0
    6.6284    0.8709    5.7405 C   0  0  0  0  0  0  0  0  0  0  0  0
    5.4552   -0.1023    5.8127 C   0  0  2  0  0  0  0  0  0  0  0  0
    5.5789   -1.1166    4.7635 C   0  0  0  0  0  0  0  0  0  0  0  0
    4.5691   -1.4341    3.8803 C   0  0  0  0  0  0  0  0  0  0  0  0
    4.7263   -2.4012    2.8978 C   0  0  0  0  0  0  0  0  0  0  0  0
    5.9140   -3.0876    2.7690 C   0  0  0  0  0  0  0  0  0  0  0  0
    6.9288   -2.7917    3.6311 C   0  0  0  0  0  0  0  0  0  0  0  0
    6.7663   -1.8295    4.6054 C   0  0  0  0  0  0  0  0  0  0  0  0
    4.1762    0.6412    5.7777 C   0  0  0  0  0  0  0  0  0  0  0  0
    3.9174    1.4993    4.9096 O   0  0  0  0  0  0  0  0  0  0  0  0
    3.2345    0.3768    6.7395 O   0  0  0  0  0  0  0  0  0  0  0  0
    1.8767    0.0906    6.4553 C   0  0  2  0  0  0  0  0  0  0  0  0
    1.4160   -1.0740    7.2708 C   0  0  0  0  0  0  0  0  0  0  0  0
    0.3990   -1.9382    6.6132 C   0  0  2  0  0  0  0  0  0  0  0  0
    1.1121   -3.0308    5.8609 C   0  0  2  0  0  0  0  0  0  0  0  0
    1.3343   -2.3816    4.4946 C   0  0  2  0  0  0  0  0  0  0  0  0
    0.6295   -1.0287    4.5803 C   0  0  2  0  0  0  0  0  0  0  0  0
    1.6439   -0.0259    4.9967 C   0  0  0  0  0  0  0  0  0  0  0  0
   -0.3741   -1.2747    5.5943 N   0  0  0  0  0  4  0  0  0  0  0  0
   -1.0151   -0.0672    6.0567 C   0  0  0  0  0  0  0  0  0  0  0  0
   -1.3897   -2.1605    5.1050 C   0  0  0  0  0  0  0  0  0  0  0  0
    0.6173   -3.5300    4.6881 O   0  0  0  0  0  0  0  0  0  0  0  0
  1  2  1  0
  3  2  1  6
  3  4  1  0
  4  5  2  0
  5  6  1  0
  6  7  2  0
  7  8  1  0
  8  9  2  0
  3 10  1  0
 10 11  2  0
 10 12  1  0
 13 12  1  6
 13 14  1  0
 15 14  1  6
 15 16  1  0
 16 17  1  0
 17 18  1  0
 18 19  1  1
 18 20  1  0
 20 21  1  0
 20 22  1  0
 17 23  1  6
  9  4  1  0
 19 13  1  0
 20 15  1  0
 16 23  1  6
M  CHG  1  20   1
M  END
$$$$
