
     RDKit          3D

 23 26  0  0  0  0  0  0  0  0999 V2000
    5.8752    2.3848    5.7720 O   0  0  0  0  0  0  0  0  0  0  0  0
    6.0617    1.3408    4.8906 C   0  0  0  0  0  0  0  0  0  0  0  0
    5.5451    0.0680    5.5554 C   0  0  2  0  0  0  0  0  0  0  0  0
    5.8036   -1.0884    4.6948 C   0  0  0  0  0  0  0  0  0  0  0  0
    5.2651   -1.2432    3.4352 C   0  0  0  0  0  0  0  0  0  0  0  0
    5.5362   -2.3540    2.6491 C   0  0  0  0  0  0  0  0  0  0  0  0
    6.3647   -3.3553    3.1068 C   0  0  0  0  0  0  0  0  0  0  0  0
    6.9100   -3.2257    4.3503 C   0  0  0  0  0  0  0  0  0  0  0  0
    6.6368   -2.1192    5.1266 C   0  0  0  0  0  0  0  0  0  0  0  0
    4.1218    0.2310    5.9262 C   0  0  0  0  0  0  0  0  0  0  0  0
    3.3616    1.0355    5.3503 O   0  0  0  0  0  0  0  0  0  0  0  0
    3.6155   -0.5342    6.9460 O   0  0  0  0  0  0  0  0  0  0  0  0
    2.2916   -1.0371    6.9713 C   0  0  2  0  0  0  0  0  0  0  0  0
    2.1070   -2.0510    5.8890 C   0  0  0  0  0  0  0  0  0  0  0  0
    0.7423   -2.0976    5.2980 C   0  0  2  0  0  0  0  0  0  0  0  0
    0.6969   -1.1589    4.1212 C   0  0  2  0  0  0  0  0  0  0  0  0
    0.2845    0.1570    4.7814 C   0  0  2  0  0  0  0  0  0  0  0  0
    0.0350   -0.1968    6.2466 C   0  0  2  0  0  0  0  0  0  0  0  0
    1.2975    0.0614    6.9864 C   0  0  0  0  0  0  0  0  0  0  0  0
   -0.2970   -1.6037    6.1653 N   0  0  0  0  0  4  0  0  0  0  0  0
   -0.3234   -2.2514    7.4546 C   0  0  0  0  0  0  0  0  0  0  0  0
   -1.5751   -1.7929    5.5438 C   0  0  0  0  0  0  0  0  0  0  0  0
   -0.4390   -0.4675    3.8031 O   0  0  0  0  0  0  0  0  0  0  0  0
  1  2  1  0
  3  2  1  6
  3  4  1  0
  4  5  2  0
  5  6  1  0
  6  7  2  0
  7  8  1  0
  8  9  2  0
  3 10  1  0
 10 11  2  0
 10 12  1  0
 13 12  1  6
 13 14  1  0
 15 14  1  1
 15 16  1  0
 16 17  1  0
 17 18  1  0
 18 19  1  1
 18 20  1  0
 20 21  1  0
 20 22  1  0
 17 23  1  6
  9  4  1  0
 19 13  1  0
 20 15  1  0
 16 23  1  6
M  CHG  1  20   1
M  END
$$$$
