
     RDKit          3D

 23 26  0  0  0  0  0  0  0  0999 V2000
    6.6307    2.0979    6.5989 O   0  0  0  0  0  0  0  0  0  0  0  0
    6.6471    1.1309    5.6159 C   0  0  0  0  0  0  0  0  0  0  0  0
    5.5128    0.1513    5.9032 C   0  0  2  0  0  0  0  0  0  0  0  0
    5.4996   -0.9110    4.8951 C   0  0  0  0  0  0  0  0  0  0  0  0
    5.4109   -2.2535    5.1961 C   0  0  0  0  0  0  0  0  0  0  0  0
    5.3995   -3.2305    4.2109 C   0  0  0  0  0  0  0  0  0  0  0  0
    5.4777   -2.8881    2.8786 C   0  0  0  0  0  0  0  0  0  0  0  0
    5.5664   -1.5660    2.5548 C   0  0  0  0  0  0  0  0  0  0  0  0
    5.5771   -0.5998    3.5385 C   0  0  0  0  0  0  0  0  0  0  0  0
    4.2303    0.8800    6.0205 C   0  0  0  0  0  0  0  0  0  0  0  0
    3.9206    1.8273    5.2698 O   0  0  0  0  0  0  0  0  0  0  0  0
    3.3436    0.4992    6.9955 O   0  0  0  0  0  0  0  0  0  0  0  0
    1.9916    0.1613    6.7424 C   0  0  2  0  0  0  0  0  0  0  0  0
    1.7651   -1.2901    7.0176 C   0  0  0  0  0  0  0  0  0  0  0  0
    0.7482   -1.9429    6.1495 C   0  0  2  0  0  0  0  0  0  0  0  0
    1.4429   -2.5084    4.9389 C   0  0  2  0  0  0  0  0  0  0  0  0
    1.4023   -1.3267    3.9696 C   0  0  2  0  0  0  0  0  0  0  0  0
    0.5945   -0.2500    4.6923 C   0  0  2  0  0  0  0  0  0  0  0  0
    1.5607    0.6267    5.4034 C   0  0  0  0  0  0  0  0  0  0  0  0
   -0.2234   -1.0378    5.5903 N   0  0  0  0  0  4  0  0  0  0  0  0
   -0.9000   -0.2384    6.5832 C   0  0  0  0  0  0  0  0  0  0  0  0
   -1.2124   -1.7794    4.8640 C   0  0  0  0  0  0  0  0  0  0  0  0
    0.8313   -2.5435    3.7165 O   0  0  0  0  0  0  0  0  0  0  0  0
  1  2  1  0
  3  2  1  6
  3  4  1  0
  4  5  2  0
  5  6  1  0
  6  7  2  0
  7  8  1  0
  8  9  2  0
  3 10  1  0
 10 11  2  0
 10 12  1  0
 13 12  1  6
 13 14  1  0
 15 14  1  1
 15 16  1  0
 16 17  1  0
 17 18  1  0
 18 19  1  1
 18 20  1  0
 20 21  1  0
 20 22  1  0
 17 23  1  6
  9  4  1  0
 19 13  1  0
 20 15  1  0
 16 23  1  6
M  CHG  1  20   1
M  END
$$$$
