
     RDKit          3D

 23 26  0  0  0  0  0  0  0  0999 V2000
    6.5545    2.0111    6.6604 O   0  0  0  0  0  0  0  0  0  0  0  0
    6.6382    1.1139    5.6165 C   0  0  0  0  0  0  0  0  0  0  0  0
    5.4632    0.1473    5.7339 C   0  0  2  0  0  0  0  0  0  0  0  0
    5.6000   -0.9307    4.7520 C   0  0  0  0  0  0  0  0  0  0  0  0
    5.5471   -0.7376    3.3880 C   0  0  0  0  0  0  0  0  0  0  0  0
    5.6831   -1.7860    2.4893 C   0  0  0  0  0  0  0  0  0  0  0  0
    5.8783   -3.0750    2.9353 C   0  0  0  0  0  0  0  0  0  0  0  0
    5.9343   -3.2923    4.2808 C   0  0  0  0  0  0  0  0  0  0  0  0
    5.7985   -2.2461    5.1687 C   0  0  0  0  0  0  0  0  0  0  0  0
    4.1856    0.8872    5.6352 C   0  0  0  0  0  0  0  0  0  0  0  0
    3.8980    1.6114    4.6607 O   0  0  0  0  0  0  0  0  0  0  0  0
    3.2780    0.7731    6.6575 O   0  0  0  0  0  0  0  0  0  0  0  0
    1.9506    0.3101    6.4848 C   0  0  2  0  0  0  0  0  0  0  0  0
    1.8429   -1.1149    6.9223 C   0  0  0  0  0  0  0  0  0  0  0  0
    0.8597   -1.9328    6.1621 C   0  0  2  0  0  0  0  0  0  0  0  0
    1.5680   -2.5753    4.9986 C   0  0  2  0  0  0  0  0  0  0  0  0
    1.4144   -1.5140    3.9089 C   0  0  2  0  0  0  0  0  0  0  0  0
    0.5428   -0.4269    4.5358 C   0  0  2  0  0  0  0  0  0  0  0  0
    1.4547    0.5920    5.1173 C   0  0  0  0  0  0  0  0  0  0  0  0
   -0.1913   -1.1693    5.5387 N   0  0  0  0  0  4  0  0  0  0  0  0
   -0.9045   -0.3176    6.4599 C   0  0  0  0  0  0  0  0  0  0  0  0
   -1.1366   -2.0576    4.9281 C   0  0  0  0  0  0  0  0  0  0  0  0
    0.9331   -2.7901    3.8069 O   0  0  0  0  0  0  0  0  0  0  0  0
  1  2  1  0
  3  2  1  6
  3  4  1  0
  4  5  2  0
  5  6  1  0
  6  7  2  0
  7  8  1  0
  8  9  2  0
  3 10  1  0
 10 11  2  0
 10 12  1  0
 13 12  1  6
 13 14  1  0
 15 14  1  6
 15 16  1  0
 16 17  1  0
 17 18  1  0
 18 19  1  1
 18 20  1  0
 20 21  1  0
 20 22  1  0
 17 23  1  6
  9  4  1  0
 19 13  1  0
 20 15  1  0
 16 23  1  6
M  CHG  1  20   1
M  END
$$$$
