
     RDKit          3D

 23 26  0  0  0  0  0  0  0  0999 V2000
    4.7292    2.2691    5.8294 O   0  0  0  0  0  0  0  0  0  0  0  0
    5.4159    1.4918    4.9206 C   0  0  0  0  0  0  0  0  0  0  0  0
    5.2067    0.0292    5.3022 C   0  0  2  0  0  0  0  0  0  0  0  0
    6.3366   -0.7778    4.8363 C   0  0  0  0  0  0  0  0  0  0  0  0
    7.4290   -1.0915    5.6166 C   0  0  0  0  0  0  0  0  0  0  0  0
    8.4797   -1.8612    5.1383 C   0  0  0  0  0  0  0  0  0  0  0  0
    8.4677   -2.3456    3.8485 C   0  0  0  0  0  0  0  0  0  0  0  0
    7.3977   -2.0490    3.0562 C   0  0  0  0  0  0  0  0  0  0  0  0
    6.3566   -1.2835    3.5374 C   0  0  0  0  0  0  0  0  0  0  0  0
    3.8929   -0.4409    4.8096 C   0  0  0  0  0  0  0  0  0  0  0  0
    3.2458    0.1630    3.9302 O   0  0  0  0  0  0  0  0  0  0  0  0
    3.3629   -1.5890    5.3413 O   0  0  0  0  0  0  0  0  0  0  0  0
    1.9728   -1.8386    5.4498 C   0  0  2  0  0  0  0  0  0  0  0  0
    1.2416   -1.1633    4.3349 C   0  0  0  0  0  0  0  0  0  0  0  0
   -0.1236   -0.6825    4.6795 C   0  0  2  0  0  0  0  0  0  0  0  0
   -0.0217    0.7359    5.1754 C   0  0  2  0  0  0  0  0  0  0  0  0
    0.2032    0.5321    6.6739 C   0  0  2  0  0  0  0  0  0  0  0  0
    0.0984   -0.9770    6.8879 C   0  0  2  0  0  0  0  0  0  0  0  0
    1.4745   -1.5323    6.8111 C   0  0  0  0  0  0  0  0  0  0  0  0
   -0.7391   -1.3819    5.7786 N   0  0  0  0  0  4  0  0  0  0  0  0
   -0.7794   -2.8130    5.5965 C   0  0  0  0  0  0  0  0  0  0  0  0
   -2.0834   -0.9159    5.9555 C   0  0  0  0  0  0  0  0  0  0  0  0
   -0.8578    1.2146    6.1456 O   0  0  0  0  0  0  0  0  0  0  0  0
  1  2  1  0
  3  2  1  6
  3  4  1  0
  4  5  2  0
  5  6  1  0
  6  7  2  0
  7  8  1  0
  8  9  2  0
  3 10  1  0
 10 11  2  0
 10 12  1  0
 13 12  1  1
 13 14  1  0
 15 14  1  1
 15 16  1  0
 16 17  1  0
 17 18  1  0
 18 19  1  6
 18 20  1  0
 20 21  1  0
 20 22  1  0
 17 23  1  1
  9  4  1  0
 19 13  1  0
 20 15  1  0
 16 23  1  1
M  CHG  1  20   1
M  END
$$$$
