
     RDKit          3D

 23 26  0  0  0  0  0  0  0  0999 V2000
    6.6847    2.3168    5.9049 O   0  0  0  0  0  0  0  0  0  0  0  0
    6.6288    1.3232    4.9503 C   0  0  0  0  0  0  0  0  0  0  0  0
    5.5827    0.3048    5.3946 C   0  0  2  0  0  0  0  0  0  0  0  0
    5.6407   -0.8810    4.5372 C   0  0  0  0  0  0  0  0  0  0  0  0
    6.0154   -2.1314    4.9810 C   0  0  0  0  0  0  0  0  0  0  0  0
    6.0559   -3.2316    4.1366 C   0  0  0  0  0  0  0  0  0  0  0  0
    5.7183   -3.1112    2.8062 C   0  0  0  0  0  0  0  0  0  0  0  0
    5.3442   -1.8842    2.3425 C   0  0  0  0  0  0  0  0  0  0  0  0
    5.3059   -0.7946    3.1868 C   0  0  0  0  0  0  0  0  0  0  0  0
    4.2470    0.9395    5.4476 C   0  0  0  0  0  0  0  0  0  0  0  0
    3.8653    1.7809    4.6091 O   0  0  0  0  0  0  0  0  0  0  0  0
    3.3913    0.5889    6.4609 O   0  0  0  0  0  0  0  0  0  0  0  0
    2.0370    0.2269    6.2587 C   0  0  2  0  0  0  0  0  0  0  0  0
    1.7008   -0.9793    7.0745 C   0  0  0  0  0  0  0  0  0  0  0  0
    0.6952   -1.8902    6.4639 C   0  0  2  0  0  0  0  0  0  0  0  0
    1.4201   -2.9226    5.6413 C   0  0  2  0  0  0  0  0  0  0  0  0
    1.5127   -2.2342    4.2792 C   0  0  2  0  0  0  0  0  0  0  0  0
    0.7366   -0.9284    4.4425 C   0  0  2  0  0  0  0  0  0  0  0  0
    1.7154    0.1254    4.8159 C   0  0  0  0  0  0  0  0  0  0  0  0
   -0.1815   -1.2546    5.5134 N   0  0  0  0  0  4  0  0  0  0  0  0
   -0.8605   -0.0974    6.0450 C   0  0  0  0  0  0  0  0  0  0  0  0
   -1.1732   -2.1902    5.0701 C   0  0  0  0  0  0  0  0  0  0  0  0
    0.8790   -3.4275    4.4915 O   0  0  0  0  0  0  0  0  0  0  0  0
  1  2  1  0
  3  2  1  6
  3  4  1  0
  4  5  2  0
  5  6  1  0
  6  7  2  0
  7  8  1  0
  8  9  2  0
  3 10  1  0
 10 11  2  0
 10 12  1  0
 13 12  1  6
 13 14  1  0
 15 14  1  6
 15 16  1  0
 16 17  1  0
 17 18  1  0
 18 19  1  1
 18 20  1  0
 20 21  1  0
 20 22  1  0
 17 23  1  6
  9  4  1  0
 19 13  1  0
 20 15  1  0
 16 23  1  6
M  CHG  1  20   1
M  END
$$$$
