
     RDKit          3D

 23 26  0  0  0  0  0  0  0  0999 V2000
    5.7701    0.1228    7.9586 O   0  0  0  0  0  0  0  0  0  0  0  0
    6.2183   -0.1964    6.6942 C   0  0  0  0  0  0  0  0  0  0  0  0
    4.9983   -0.4734    5.8204 C   0  0  2  0  0  0  0  0  0  0  0  0
    5.4193   -1.0263    4.5312 C   0  0  0  0  0  0  0  0  0  0  0  0
    5.2474   -2.3454    4.1691 C   0  0  0  0  0  0  0  0  0  0  0  0
    5.6588   -2.8307    2.9360 C   0  0  0  0  0  0  0  0  0  0  0  0
    6.2621   -1.9994    2.0176 C   0  0  0  0  0  0  0  0  0  0  0  0
    6.4437   -0.6896    2.3523 C   0  0  0  0  0  0  0  0  0  0  0  0
    6.0326   -0.2134    3.5793 C   0  0  0  0  0  0  0  0  0  0  0  0
    4.1689    0.7466    5.7055 C   0  0  0  0  0  0  0  0  0  0  0  0
    4.3853    1.7761    6.3763 O   0  0  0  0  0  0  0  0  0  0  0  0
    3.1173    0.7472    4.8245 O   0  0  0  0  0  0  0  0  0  0  0  0
    1.7865    0.4240    5.1859 C   0  0  2  0  0  0  0  0  0  0  0  0
    1.7044    0.1536    6.6535 C   0  0  0  0  0  0  0  0  0  0  0  0
    0.6955   -0.8660    7.0488 C   0  0  2  0  0  0  0  0  0  0  0  0
    1.3593   -2.2178    7.0620 C   0  0  2  0  0  0  0  0  0  0  0  0
    1.1557   -2.6846    5.6204 C   0  0  2  0  0  0  0  0  0  0  0  0
    0.3045   -1.5961    4.9687 C   0  0  2  0  0  0  0  0  0  0  0  0
    1.2338   -0.6390    4.3141 C   0  0  0  0  0  0  0  0  0  0  0  0
   -0.3841   -1.0281    6.1085 N   0  0  0  0  0  4  0  0  0  0  0  0
   -1.0638    0.2064    5.7979 C   0  0  0  0  0  0  0  0  0  0  0  0
   -1.3487   -1.9492    6.6347 C   0  0  0  0  0  0  0  0  0  0  0  0
    0.6775   -3.3510    6.7149 O   0  0  0  0  0  0  0  0  0  0  0  0
  1  2  1  0
  3  2  1  1
  3  4  1  0
  4  5  2  0
  5  6  1  0
  6  7  2  0
  7  8  1  0
  8  9  2  0
  3 10  1  0
 10 11  2  0
 10 12  1  0
 13 12  1  6
 13 14  1  0
 15 14  1  6
 15 16  1  0
 16 17  1  0
 17 18  1  0
 18 19  1  1
 18 20  1  0
 20 21  1  0
 20 22  1  0
 17 23  1  1
  9  4  1  0
 19 13  1  0
 20 15  1  0
 16 23  1  1
M  CHG  1  20   1
M  END
$$$$
