
     RDKit          3D

 23 26  0  0  0  0  0  0  0  0999 V2000
    7.0843    1.7982    7.1722 O   0  0  0  0  0  0  0  0  0  0  0  0
    7.1182    1.0499    6.0145 C   0  0  0  0  0  0  0  0  0  0  0  0
    5.9151    0.1111    6.0277 C   0  0  2  0  0  0  0  0  0  0  0  0
    5.9585   -0.7770    4.8640 C   0  0  0  0  0  0  0  0  0  0  0  0
    6.0134   -0.3316    3.5604 C   0  0  0  0  0  0  0  0  0  0  0  0
    6.0552   -1.2061    2.4839 C   0  0  0  0  0  0  0  0  0  0  0  0
    6.0430   -2.5694    2.6832 C   0  0  0  0  0  0  0  0  0  0  0  0
    5.9889   -3.0353    3.9640 C   0  0  0  0  0  0  0  0  0  0  0  0
    5.9476   -2.1610    5.0296 C   0  0  0  0  0  0  0  0  0  0  0  0
    4.6631    0.8922    6.1372 C   0  0  0  0  0  0  0  0  0  0  0  0
    4.4621    1.9402    5.4906 O   0  0  0  0  0  0  0  0  0  0  0  0
    3.6811    0.4465    6.9851 O   0  0  0  0  0  0  0  0  0  0  0  0
    2.3370    0.2344    6.5919 C   0  0  2  0  0  0  0  0  0  0  0  0
    1.8189   -1.0303    7.1964 C   0  0  0  0  0  0  0  0  0  0  0  0
    0.8278   -1.7643    6.3641 C   0  0  2  0  0  0  0  0  0  0  0  0
    1.5664   -2.7450    5.4919 C   0  0  2  0  0  0  0  0  0  0  0  0
    1.8694   -1.9015    4.2532 C   0  0  2  0  0  0  0  0  0  0  0  0
    1.1781   -0.5630    4.5075 C   0  0  2  0  0  0  0  0  0  0  0  0
    2.1811    0.3444    5.1225 C   0  0  0  0  0  0  0  0  0  0  0  0
    0.1186   -0.9388    5.4198 N   0  0  0  0  0  4  0  0  0  0  0  0
   -0.5310    0.1978    6.0271 C   0  0  0  0  0  0  0  0  0  0  0  0
   -0.8803   -1.7195    4.7504 C   0  0  0  0  0  0  0  0  0  0  0  0
    1.1288   -3.0511    4.2332 O   0  0  0  0  0  0  0  0  0  0  0  0
  1  2  1  0
  3  2  1  6
  3  4  1  0
  4  5  2  0
  5  6  1  0
  6  7  2  0
  7  8  1  0
  8  9  2  0
  3 10  1  0
 10 11  2  0
 10 12  1  0
 13 12  1  6
 13 14  1  0
 15 14  1  6
 15 16  1  0
 16 17  1  0
 17 18  1  0
 18 19  1  1
 18 20  1  0
 20 21  1  0
 20 22  1  0
 17 23  1  6
  9  4  1  0
 19 13  1  0
 20 15  1  0
 16 23  1  6
M  CHG  1  20   1
M  END
$$$$
