
     RDKit          3D

 23 26  0  0  0  0  0  0  0  0999 V2000
    6.9945    1.2199    6.8810 O   0  0  0  0  0  0  0  0  0  0  0  0
    6.5299    1.0052    5.6006 C   0  0  0  0  0  0  0  0  0  0  0  0
    5.2886    0.1226    5.6942 C   0  0  2  0  0  0  0  0  0  0  0  0
    5.3171   -0.8969    4.6431 C   0  0  0  0  0  0  0  0  0  0  0  0
    5.1663   -0.6198    3.3010 C   0  0  0  0  0  0  0  0  0  0  0  0
    5.2011   -1.6147    2.3346 C   0  0  0  0  0  0  0  0  0  0  0  0
    5.3903   -2.9331    2.6875 C   0  0  0  0  0  0  0  0  0  0  0  0
    5.5421   -3.2332    4.0094 C   0  0  0  0  0  0  0  0  0  0  0  0
    5.5065   -2.2398    4.9651 C   0  0  0  0  0  0  0  0  0  0  0  0
    4.0685    0.9597    5.6821 C   0  0  0  0  0  0  0  0  0  0  0  0
    3.8834    1.8717    4.8510 O   0  0  0  0  0  0  0  0  0  0  0  0
    3.0992    0.7243    6.6239 O   0  0  0  0  0  0  0  0  0  0  0  0
    1.7672    0.3594    6.3095 C   0  0  2  0  0  0  0  0  0  0  0  0
    1.3721   -0.8567    7.0832 C   0  0  0  0  0  0  0  0  0  0  0  0
    0.4232   -1.7649    6.3844 C   0  0  2  0  0  0  0  0  0  0  0  0
    1.2167   -2.7857    5.6122 C   0  0  2  0  0  0  0  0  0  0  0  0
    1.4155   -2.0826    4.2692 C   0  0  2  0  0  0  0  0  0  0  0  0
    0.6227   -0.7815    4.3828 C   0  0  2  0  0  0  0  0  0  0  0  0
    1.5633    0.2720    4.8446 C   0  0  0  0  0  0  0  0  0  0  0  0
   -0.3771   -1.1225    5.3729 N   0  0  0  0  0  4  0  0  0  0  0  0
   -1.1021    0.0263    5.8599 C   0  0  0  0  0  0  0  0  0  0  0  0
   -1.3256   -2.0572    4.8416 C   0  0  0  0  0  0  0  0  0  0  0  0
    0.7723   -3.2805    4.4175 O   0  0  0  0  0  0  0  0  0  0  0  0
  1  2  1  0
  3  2  1  6
  3  4  1  0
  4  5  2  0
  5  6  1  0
  6  7  2  0
  7  8  1  0
  8  9  2  0
  3 10  1  0
 10 11  2  0
 10 12  1  0
 13 12  1  6
 13 14  1  0
 15 14  1  6
 15 16  1  0
 16 17  1  0
 17 18  1  0
 18 19  1  1
 18 20  1  0
 20 21  1  0
 20 22  1  0
 17 23  1  6
  9  4  1  0
 19 13  1  0
 20 15  1  0
 16 23  1  6
M  CHG  1  20   1
M  END
$$$$
