
     RDKit          3D

 23 26  0  0  0  0  0  0  0  0999 V2000
    6.7164    2.2144    6.3293 O   0  0  0  0  0  0  0  0  0  0  0  0
    6.7235    1.3049    5.2928 C   0  0  0  0  0  0  0  0  0  0  0  0
    5.6086    0.2946    5.5481 C   0  0  2  0  0  0  0  0  0  0  0  0
    5.6803   -0.7906    4.5672 C   0  0  0  0  0  0  0  0  0  0  0  0
    5.8346   -2.1189    4.9023 C   0  0  0  0  0  0  0  0  0  0  0  0
    5.8963   -3.1188    3.9423 C   0  0  0  0  0  0  0  0  0  0  0  0
    5.8043   -2.8146    2.6016 C   0  0  0  0  0  0  0  0  0  0  0  0
    5.6513   -1.5072    2.2442 C   0  0  0  0  0  0  0  0  0  0  0  0
    5.5906   -0.5181    3.2030 C   0  0  0  0  0  0  0  0  0  0  0  0
    4.2989    0.9824    5.5841 C   0  0  0  0  0  0  0  0  0  0  0  0
    3.9798    1.8705    4.7679 O   0  0  0  0  0  0  0  0  0  0  0  0
    3.3966    0.6297    6.5553 O   0  0  0  0  0  0  0  0  0  0  0  0
    2.0200    0.4061    6.3081 C   0  0  2  0  0  0  0  0  0  0  0  0
    1.5521   -0.7969    7.0614 C   0  0  0  0  0  0  0  0  0  0  0  0
    0.4818   -1.5819    6.3891 C   0  0  2  0  0  0  0  0  0  0  0  0
    1.1280   -2.6419    5.5364 C   0  0  2  0  0  0  0  0  0  0  0  0
    1.3191   -1.9076    4.2091 C   0  0  2  0  0  0  0  0  0  0  0  0
    0.6643   -0.5426    4.4144 C   0  0  2  0  0  0  0  0  0  0  0  0
    1.7272    0.3973    4.8557 C   0  0  0  0  0  0  0  0  0  0  0  0
   -0.3072   -0.8263    5.4497 N   0  0  0  0  0  4  0  0  0  0  0  0
   -0.8887    0.3659    6.0182 C   0  0  0  0  0  0  0  0  0  0  0  0
   -1.3703   -1.6444    4.9436 C   0  0  0  0  0  0  0  0  0  0  0  0
    0.5717   -3.0438    4.3538 O   0  0  0  0  0  0  0  0  0  0  0  0
  1  2  1  0
  3  2  1  6
  3  4  1  0
  4  5  2  0
  5  6  1  0
  6  7  2  0
  7  8  1  0
  8  9  2  0
  3 10  1  0
 10 11  2  0
 10 12  1  0
 13 12  1  6
 13 14  1  0
 15 14  1  6
 15 16  1  0
 16 17  1  0
 17 18  1  0
 18 19  1  1
 18 20  1  0
 20 21  1  0
 20 22  1  0
 17 23  1  6
  9  4  1  0
 19 13  1  0
 20 15  1  0
 16 23  1  6
M  CHG  1  20   1
M  END
$$$$
