
     RDKit          3D

 23 26  0  0  0  0  0  0  0  0999 V2000
    5.7865    2.9865    5.6463 O   0  0  0  0  0  0  0  0  0  0  0  0
    6.4028    1.7673    5.4588 C   0  0  0  0  0  0  0  0  0  0  0  0
    5.7262    0.7538    6.3773 C   0  0  2  0  0  0  0  0  0  0  0  0
    6.4976   -0.4908    6.4063 C   0  0  0  0  0  0  0  0  0  0  0  0
    6.8904   -1.1232    7.5667 C   0  0  0  0  0  0  0  0  0  0  0  0
    7.6197   -2.3035    7.5521 C   0  0  0  0  0  0  0  0  0  0  0  0
    7.9820   -2.8929    6.3605 C   0  0  0  0  0  0  0  0  0  0  0  0
    7.6053   -2.2864    5.1983 C   0  0  0  0  0  0  0  0  0  0  0  0
    6.8804   -1.1135    5.2194 C   0  0  0  0  0  0  0  0  0  0  0  0
    4.3128    0.5719    5.9784 C   0  0  0  0  0  0  0  0  0  0  0  0
    3.9640    0.3810    4.7958 O   0  0  0  0  0  0  0  0  0  0  0  0
    3.3442    0.6149    6.9489 O   0  0  0  0  0  0  0  0  0  0  0  0
    2.1075   -0.0698    6.8587 C   0  0  2  0  0  0  0  0  0  0  0  0
    2.3402   -1.5453    6.8093 C   0  0  0  0  0  0  0  0  0  0  0  0
    1.3549   -2.3097    5.9979 C   0  0  2  0  0  0  0  0  0  0  0  0
    1.8680   -2.4053    4.5852 C   0  0  2  0  0  0  0  0  0  0  0  0
    1.2925   -1.1379    3.9527 C   0  0  2  0  0  0  0  0  0  0  0  0
    0.4248   -0.5109    5.0428 C   0  0  2  0  0  0  0  0  0  0  0  0
    1.2672    0.4758    5.7672 C   0  0  0  0  0  0  0  0  0  0  0  0
    0.0768   -1.6608    5.8506 N   0  0  0  0  0  4  0  0  0  0  0  0
   -0.5318   -1.3016    7.1088 C   0  0  0  0  0  0  0  0  0  0  0  0
   -0.8258   -2.5254    5.1482 C   0  0  0  0  0  0  0  0  0  0  0  0
    1.0169   -2.4040    3.5151 O   0  0  0  0  0  0  0  0  0  0  0  0
  1  2  1  0
  3  2  1  6
  3  4  1  0
  4  5  2  0
  5  6  1  0
  6  7  2  0
  7  8  1  0
  8  9  2  0
  3 10  1  0
 10 11  2  0
 10 12  1  0
 13 12  1  6
 13 14  1  0
 15 14  1  1
 15 16  1  0
 16 17  1  0
 17 18  1  0
 18 19  1  1
 18 20  1  0
 20 21  1  0
 20 22  1  0
 17 23  1  6
  9  4  1  0
 19 13  1  0
 20 15  1  0
 16 23  1  6
M  CHG  1  20   1
M  END
$$$$
