
     RDKit          3D

 23 26  0  0  0  0  0  0  0  0999 V2000
    6.5729    1.9028    6.7113 O   0  0  0  0  0  0  0  0  0  0  0  0
    6.5760    1.1844    5.5343 C   0  0  0  0  0  0  0  0  0  0  0  0
    5.7994   -0.1076    5.7717 C   0  0  2  0  0  0  0  0  0  0  0  0
    5.9004   -0.9771    4.5975 C   0  0  0  0  0  0  0  0  0  0  0  0
    6.4210   -2.2532    4.6301 C   0  0  0  0  0  0  0  0  0  0  0  0
    6.4979   -3.0471    3.4947 C   0  0  0  0  0  0  0  0  0  0  0  0
    6.0503   -2.5810    2.2778 C   0  0  0  0  0  0  0  0  0  0  0  0
    5.5308   -1.3211    2.2193 C   0  0  0  0  0  0  0  0  0  0  0  0
    5.4571   -0.5371    3.3513 C   0  0  0  0  0  0  0  0  0  0  0  0
    4.4078    0.2023    6.1680 C   0  0  0  0  0  0  0  0  0  0  0  0
    3.7769    1.1775    5.7121 O   0  0  0  0  0  0  0  0  0  0  0  0
    3.7837   -0.6162    7.0749 O   0  0  0  0  0  0  0  0  0  0  0  0
    2.4702   -1.1195    6.9087 C   0  0  2  0  0  0  0  0  0  0  0  0
    2.3110   -1.6963    5.5392 C   0  0  0  0  0  0  0  0  0  0  0  0
    0.9502   -1.5579    4.9537 C   0  0  2  0  0  0  0  0  0  0  0  0
    0.8910   -0.2692    4.1766 C   0  0  2  0  0  0  0  0  0  0  0  0
    0.4491    0.7272    5.2488 C   0  0  2  0  0  0  0  0  0  0  0  0
    0.2003   -0.1189    6.4964 C   0  0  2  0  0  0  0  0  0  0  0  0
    1.4540   -0.1124    7.2939 C   0  0  0  0  0  0  0  0  0  0  0  0
   -0.1027   -1.4150    5.9269 N   0  0  0  0  0  4  0  0  0  0  0  0
   -0.1218   -2.4714    6.9098 C   0  0  0  0  0  0  0  0  0  0  0  0
   -1.3740   -1.3983    5.2642 C   0  0  0  0  0  0  0  0  0  0  0  0
   -0.2573    0.4698    4.1063 O   0  0  0  0  0  0  0  0  0  0  0  0
  1  2  1  0
  3  2  1  6
  3  4  1  0
  4  5  2  0
  5  6  1  0
  6  7  2  0
  7  8  1  0
  8  9  2  0
  3 10  1  0
 10 11  2  0
 10 12  1  0
 13 12  1  6
 13 14  1  0
 15 14  1  1
 15 16  1  0
 16 17  1  0
 17 18  1  0
 18 19  1  1
 18 20  1  0
 20 21  1  0
 20 22  1  0
 17 23  1  6
  9  4  1  0
 19 13  1  0
 20 15  1  0
 16 23  1  6
M  CHG  1  20   1
M  END
$$$$
