
     RDKit          3D

 23 26  0  0  0  0  0  0  0  0999 V2000
    6.7417    1.9180    6.4555 O   0  0  0  0  0  0  0  0  0  0  0  0
    6.6082    1.1165    5.3414 C   0  0  0  0  0  0  0  0  0  0  0  0
    5.5037    0.1020    5.6234 C   0  0  2  0  0  0  0  0  0  0  0  0
    5.5046   -0.9401    4.5944 C   0  0  0  0  0  0  0  0  0  0  0  0
    5.6085   -2.2875    4.8669 C   0  0  0  0  0  0  0  0  0  0  0  0
    5.6037   -3.2451    3.8627 C   0  0  0  0  0  0  0  0  0  0  0  0
    5.4933   -2.8773    2.5394 C   0  0  0  0  0  0  0  0  0  0  0  0
    5.3892   -1.5498    2.2437 C   0  0  0  0  0  0  0  0  0  0  0  0
    5.3946   -0.6031    3.2462 C   0  0  0  0  0  0  0  0  0  0  0  0
    4.2044    0.7945    5.7718 C   0  0  0  0  0  0  0  0  0  0  0  0
    3.8986    1.8061    5.1086 O   0  0  0  0  0  0  0  0  0  0  0  0
    3.2970    0.3047    6.6765 O   0  0  0  0  0  0  0  0  0  0  0  0
    1.9182    0.1381    6.3981 C   0  0  2  0  0  0  0  0  0  0  0  0
    1.3449   -0.9338    7.2675 C   0  0  0  0  0  0  0  0  0  0  0  0
    0.2495   -1.7269    6.6471 C   0  0  2  0  0  0  0  0  0  0  0  0
    0.8538   -2.9199    5.9546 C   0  0  2  0  0  0  0  0  0  0  0  0
    1.1404   -2.3646    4.5592 C   0  0  2  0  0  0  0  0  0  0  0  0
    0.5707   -0.9470    4.5731 C   0  0  2  0  0  0  0  0  0  0  0  0
    1.6774   -0.0281    4.9457 C   0  0  0  0  0  0  0  0  0  0  0  0
   -0.4537   -1.0431    5.5916 N   0  0  0  0  0  4  0  0  0  0  0  0
   -0.9745    0.2427    5.9894 C   0  0  0  0  0  0  0  0  0  0  0  0
   -1.5500   -1.8492    5.1404 C   0  0  0  0  0  0  0  0  0  0  0  0
    0.3144   -3.4267    4.8049 O   0  0  0  0  0  0  0  0  0  0  0  0
  1  2  1  0
  3  2  1  6
  3  4  1  0
  4  5  2  0
  5  6  1  0
  6  7  2  0
  7  8  1  0
  8  9  2  0
  3 10  1  0
 10 11  2  0
 10 12  1  0
 13 12  1  6
 13 14  1  0
 15 14  1  6
 15 16  1  0
 16 17  1  0
 17 18  1  0
 18 19  1  1
 18 20  1  0
 20 21  1  0
 20 22  1  0
 17 23  1  6
  9  4  1  0
 19 13  1  0
 20 15  1  0
 16 23  1  6
M  CHG  1  20   1
M  END
$$$$
