
     RDKit          3D

 23 26  0  0  0  0  0  0  0  0999 V2000
    6.7139    1.9726    6.5430 O   0  0  0  0  0  0  0  0  0  0  0  0
    6.7471    1.0687    5.5021 C   0  0  0  0  0  0  0  0  0  0  0  0
    5.5528    0.1315    5.6568 C   0  0  2  0  0  0  0  0  0  0  0  0
    5.6074   -0.9230    4.6420 C   0  0  0  0  0  0  0  0  0  0  0  0
    5.3932   -0.7059    3.2975 C   0  0  0  0  0  0  0  0  0  0  0  0
    5.4556   -1.7325    2.3661 C   0  0  0  0  0  0  0  0  0  0  0  0
    5.7377   -3.0229    2.7581 C   0  0  0  0  0  0  0  0  0  0  0  0
    5.9536   -3.2637    4.0833 C   0  0  0  0  0  0  0  0  0  0  0  0
    5.8902   -2.2391    5.0040 C   0  0  0  0  0  0  0  0  0  0  0  0
    4.2933    0.9082    5.6447 C   0  0  0  0  0  0  0  0  0  0  0  0
    4.0493    1.7861    4.7923 O   0  0  0  0  0  0  0  0  0  0  0  0
    3.3534    0.6534    6.6109 O   0  0  0  0  0  0  0  0  0  0  0  0
    2.0088    0.3076    6.3304 C   0  0  2  0  0  0  0  0  0  0  0  0
    1.6382   -0.9440    7.0584 C   0  0  0  0  0  0  0  0  0  0  0  0
    0.6594   -1.8145    6.3530 C   0  0  2  0  0  0  0  0  0  0  0  0
    1.4185   -2.7983    5.5021 C   0  0  2  0  0  0  0  0  0  0  0  0
    1.5688   -2.0308    4.1883 C   0  0  2  0  0  0  0  0  0  0  0  0
    0.7866   -0.7349    4.3957 C   0  0  2  0  0  0  0  0  0  0  0  0
    1.7487    0.2924    4.8718 C   0  0  0  0  0  0  0  0  0  0  0  0
   -0.1761   -1.1215    5.4055 N   0  0  0  0  0  4  0  0  0  0  0  0
   -0.8770    0.0040    5.9754 C   0  0  0  0  0  0  0  0  0  0  0  0
   -1.1482   -2.0267    4.8660 C   0  0  0  0  0  0  0  0  0  0  0  0
    0.9266   -3.2329    4.3026 O   0  0  0  0  0  0  0  0  0  0  0  0
  1  2  1  0
  3  2  1  6
  3  4  1  0
  4  5  2  0
  5  6  1  0
  6  7  2  0
  7  8  1  0
  8  9  2  0
  3 10  1  0
 10 11  2  0
 10 12  1  0
 13 12  1  6
 13 14  1  0
 15 14  1  6
 15 16  1  0
 16 17  1  0
 17 18  1  0
 18 19  1  1
 18 20  1  0
 20 21  1  0
 20 22  1  0
 17 23  1  6
  9  4  1  0
 19 13  1  0
 20 15  1  0
 16 23  1  6
M  CHG  1  20   1
M  END
$$$$
