
     RDKit          3D

 23 26  0  0  0  0  0  0  0  0999 V2000
    6.6890    1.8661    6.4409 O   0  0  0  0  0  0  0  0  0  0  0  0
    6.6346    1.0528    5.3286 C   0  0  0  0  0  0  0  0  0  0  0  0
    5.4612    0.0935    5.5064 C   0  0  2  0  0  0  0  0  0  0  0  0
    5.5062   -0.9503    4.4800 C   0  0  0  0  0  0  0  0  0  0  0  0
    5.1778   -0.7407    3.1576 C   0  0  0  0  0  0  0  0  0  0  0  0
    5.2350   -1.7565    2.2141 C   0  0  0  0  0  0  0  0  0  0  0  0
    5.6277   -3.0280    2.5711 C   0  0  0  0  0  0  0  0  0  0  0  0
    5.9578   -3.2610    3.8739 C   0  0  0  0  0  0  0  0  0  0  0  0
    5.8989   -2.2472    4.8068 C   0  0  0  0  0  0  0  0  0  0  0  0
    4.1888    0.8482    5.5362 C   0  0  0  0  0  0  0  0  0  0  0  0
    3.9124    1.7392    4.7076 O   0  0  0  0  0  0  0  0  0  0  0  0
    3.2734    0.5569    6.5155 O   0  0  0  0  0  0  0  0  0  0  0  0
    1.9247    0.2109    6.2558 C   0  0  2  0  0  0  0  0  0  0  0  0
    1.5727   -1.0539    6.9700 C   0  0  0  0  0  0  0  0  0  0  0  0
    0.5831   -1.9163    6.2695 C   0  0  2  0  0  0  0  0  0  0  0  0
    1.3285   -2.8829    5.3875 C   0  0  2  0  0  0  0  0  0  0  0  0
    1.4504   -2.0932    4.0841 C   0  0  2  0  0  0  0  0  0  0  0  0
    0.6681   -0.8038    4.3283 C   0  0  2  0  0  0  0  0  0  0  0  0
    1.6360    0.2190    4.8026 C   0  0  0  0  0  0  0  0  0  0  0  0
   -0.2733   -1.2106    5.3503 N   0  0  0  0  0  4  0  0  0  0  0  0
   -0.9665   -0.0974    5.9526 C   0  0  0  0  0  0  0  0  0  0  0  0
   -1.2528   -2.1103    4.8150 C   0  0  0  0  0  0  0  0  0  0  0  0
    0.8145   -3.2993    4.1908 O   0  0  0  0  0  0  0  0  0  0  0  0
  1  2  1  0
  3  2  1  6
  3  4  1  0
  4  5  2  0
  5  6  1  0
  6  7  2  0
  7  8  1  0
  8  9  2  0
  3 10  1  0
 10 11  2  0
 10 12  1  0
 13 12  1  6
 13 14  1  0
 15 14  1  6
 15 16  1  0
 16 17  1  0
 17 18  1  0
 18 19  1  1
 18 20  1  0
 20 21  1  0
 20 22  1  0
 17 23  1  6
  9  4  1  0
 19 13  1  0
 20 15  1  0
 16 23  1  6
M  CHG  1  20   1
M  END
$$$$
