
     RDKit          3D

 32 36  0  0  0  0  0  0  0  0999 V2000
   -0.1650    5.4545   10.4280 C   0  0  0  0  0  0  0  0  0  0  0  0
    0.2501    4.1342   10.9827 C   0  0  0  0  0  0  0  0  0  0  0  0
    1.6982    3.9212   10.7155 C   0  0  0  0  0  0  0  0  0  0  0  0
    2.2761    3.1707   11.9118 C   0  0  0  0  0  0  0  0  0  0  0  0
    2.0736    1.7453   11.6455 N   0  0  0  0  0  0  0  0  0  0  0  0
    0.9773    1.0950   10.9891 C   0  0  0  0  0  0  0  0  0  0  0  0
   -0.3676    1.6657   11.1893 C   0  0  0  0  0  0  0  0  0  0  0  0
   -0.5763    3.0084   10.6695 N   0  0  0  0  0  0  0  0  0  0  0  0
   -1.7170    3.2006    9.8387 C   0  0  0  0  0  0  0  0  0  0  0  0
   -2.5146    4.1276   10.1014 O   0  0  0  0  0  0  0  0  0  0  0  0
   -1.9793    2.3527    8.7052 C   0  0  0  0  0  0  0  0  0  0  0  0
   -1.4578    2.6543    7.4735 C   0  0  0  0  0  0  0  0  0  0  0  0
   -1.7443    1.8290    6.4141 C   0  0  0  0  0  0  0  0  0  0  0  0
   -2.5428    0.7058    6.5558 C   0  0  0  0  0  0  0  0  0  0  0  0
   -3.0858    0.3768    7.7954 C   0  0  0  0  0  0  0  0  0  0  0  0
   -2.7911    1.2102    8.8478 C   0  0  0  0  0  0  0  0  0  0  0  0
   -3.9450   -0.8383    7.9169 C   0  0  0  0  0  0  0  0  0  0  0  0
   -0.6429    3.8052    7.2581 N   0  0  0  0  0  0  0  0  0  0  0  0
   -1.0179    5.0756    7.4862 N   0  0  0  0  0  0  0  0  0  0  0  0
   -0.0337    5.9279    7.1837 C   0  0  0  0  0  0  0  0  0  0  0  0
    1.0176    5.1575    6.7407 C   0  0  0  0  0  0  0  0  0  0  0  0
    0.5793    3.8918    6.8134 N   0  0  0  0  0  0  0  0  0  0  0  0
    3.1296    0.9114   12.0844 C   0  0  0  0  0  0  0  0  0  0  0  0
    3.2627   -0.4275   12.0814 N   0  0  0  0  0  0  0  0  0  0  0  0
    4.4540   -0.7551   12.6036 C   0  0  0  0  0  0  0  0  0  0  0  0
    5.0663    0.4346   12.9354 C   0  0  0  0  0  0  0  0  0  0  0  0
    4.2553    1.3945   12.6154 O   0  0  0  0  0  0  0  0  0  0  0  0
    6.3221    0.4500   13.5008 C   0  0  0  0  0  0  0  0  0  0  0  0
    7.0185   -0.7277   13.7580 C   0  0  0  0  0  0  0  0  0  0  0  0
    6.3902   -1.9235   13.4193 C   0  0  0  0  0  0  0  0  0  0  0  0
    5.1350   -1.9400   12.8542 C   0  0  0  0  0  0  0  0  0  0  0  0
    7.2528   -3.4338   13.7342 Cl  0  0  0  0  0  0  0  0  0  0  0  0
  1  2  1  0
  2  3  1  0
  3  4  1  0
  4  5  1  0
  5  6  1  0
  6  7  1  0
  7  8  1  0
  8  9  1  0
  9 10  2  0
  9 11  1  0
 11 12  1  0
 12 13  2  0
 13 14  1  0
 14 15  2  0
 15 16  1  0
 15 17  1  0
 12 18  1  0
 18 19  1  0
 19 20  2  0
 20 21  1  0
 21 22  2  0
  5 23  1  0
 23 24  2  0
 24 25  1  0
 25 26  2  0
 26 27  1  0
 26 28  1  0
 28 29  2  0
 29 30  1  0
 30 31  2  0
 30 32  1  0
  8  2  1  0
 16 11  2  0
 22 18  1  0
 27 23  1  0
 31 25  1  0
M  END
$$$$
