
     RDKit          3D

 32 36  0  0  0  0  0  0  0  0999 V2000
    1.1895    3.8034    7.7416 C   0  0  0  0  0  0  0  0  0  0  0  0
    1.3714    3.0359    9.0068 C   0  0  0  0  0  0  0  0  0  0  0  0
    2.6934    2.3534    8.9831 C   0  0  0  0  0  0  0  0  0  0  0  0
    3.2369    2.3645   10.4088 C   0  0  0  0  0  0  0  0  0  0  0  0
    2.6963    1.1747   11.0689 N   0  0  0  0  0  0  0  0  0  0  0  0
    1.4117    0.5580   10.9107 C   0  0  0  0  0  0  0  0  0  0  0  0
    0.2595    1.4453   10.6656 C   0  0  0  0  0  0  0  0  0  0  0  0
    0.2866    2.1996    9.4219 N   0  0  0  0  0  0  0  0  0  0  0  0
   -0.8785    2.1264    8.6060 C   0  0  0  0  0  0  0  0  0  0  0  0
   -1.4090    1.0131    8.3974 O   0  0  0  0  0  0  0  0  0  0  0  0
   -1.4604    3.3008    8.0105 C   0  0  0  0  0  0  0  0  0  0  0  0
   -1.1217    4.5512    8.4600 C   0  0  0  0  0  0  0  0  0  0  0  0
   -1.7109    5.6456    7.8765 C   0  0  0  0  0  0  0  0  0  0  0  0
   -2.6341    5.5207    6.8512 C   0  0  0  0  0  0  0  0  0  0  0  0
   -2.9966    4.2627    6.3761 C   0  0  0  0  0  0  0  0  0  0  0  0
   -2.3994    3.1755    6.9678 C   0  0  0  0  0  0  0  0  0  0  0  0
   -3.9965    4.1594    5.2720 C   0  0  0  0  0  0  0  0  0  0  0  0
   -0.1911    4.7464    9.5233 N   0  0  0  0  0  0  0  0  0  0  0  0
   -0.5154    4.9333   10.8144 N   0  0  0  0  0  0  0  0  0  0  0  0
    0.5788    5.0901   11.5658 C   0  0  0  0  0  0  0  0  0  0  0  0
    1.6503    4.9987   10.7064 C   0  0  0  0  0  0  0  0  0  0  0  0
    1.1113    4.7913    9.4957 N   0  0  0  0  0  0  0  0  0  0  0  0
    3.5906    0.5462   11.9681 C   0  0  0  0  0  0  0  0  0  0  0  0
    4.8965    0.2432   11.8539 N   0  0  0  0  0  0  0  0  0  0  0  0
    5.3129   -0.3527   12.9812 C   0  0  0  0  0  0  0  0  0  0  0  0
    4.2136   -0.4118   13.8109 C   0  0  0  0  0  0  0  0  0  0  0  0
    3.2174    0.1270   13.1795 O   0  0  0  0  0  0  0  0  0  0  0  0
    4.3041   -0.9724   15.0658 C   0  0  0  0  0  0  0  0  0  0  0  0
    5.5016   -1.4983   15.5428 C   0  0  0  0  0  0  0  0  0  0  0  0
    6.6052   -1.4338   14.6959 C   0  0  0  0  0  0  0  0  0  0  0  0
    6.5158   -0.8737   13.4416 C   0  0  0  0  0  0  0  0  0  0  0  0
    8.1386   -2.0933   15.2774 Cl  0  0  0  0  0  0  0  0  0  0  0  0
  1  2  1  0
  2  3  1  0
  3  4  1  0
  4  5  1  0
  5  6  1  0
  6  7  1  0
  7  8  1  0
  8  9  1  0
  9 10  2  0
  9 11  1  0
 11 12  1  0
 12 13  2  0
 13 14  1  0
 14 15  2  0
 15 16  1  0
 15 17  1  0
 12 18  1  0
 18 19  1  0
 19 20  2  0
 20 21  1  0
 21 22  2  0
  5 23  1  0
 23 24  2  0
 24 25  1  0
 25 26  2  0
 26 27  1  0
 26 28  1  0
 28 29  2  0
 29 30  1  0
 30 31  2  0
 30 32  1  0
  8  2  1  0
 16 11  2  0
 22 18  1  0
 27 23  1  0
 31 25  1  0
M  END
$$$$
