
     RDKit          3D

 32 36  0  0  0  0  0  0  0  0999 V2000
    1.4260    5.1324    8.3034 C   0  0  0  0  0  0  0  0  0  0  0  0
    1.5741    4.1539    9.4185 C   0  0  0  0  0  0  0  0  0  0  0  0
    2.7825    3.3183    9.1832 C   0  0  0  0  0  0  0  0  0  0  0  0
    3.4077    3.0287   10.5446 C   0  0  0  0  0  0  0  0  0  0  0  0
    2.7455    1.8286   11.0592 N   0  0  0  0  0  0  0  0  0  0  0  0
    1.3795    1.4176   10.9155 C   0  0  0  0  0  0  0  0  0  0  0  0
    0.3515    2.4748   10.9030 C   0  0  0  0  0  0  0  0  0  0  0  0
    0.4093    3.4098    9.7899 N   0  0  0  0  0  0  0  0  0  0  0  0
   -0.8018    3.6211    9.0708 C   0  0  0  0  0  0  0  0  0  0  0  0
   -1.0076    4.7322    8.5343 O   0  0  0  0  0  0  0  0  0  0  0  0
   -1.7990    2.5900    8.9481 C   0  0  0  0  0  0  0  0  0  0  0  0
   -2.7137    2.3824    9.9482 C   0  0  0  0  0  0  0  0  0  0  0  0
   -3.6388    1.3785    9.8001 C   0  0  0  0  0  0  0  0  0  0  0  0
   -3.6719    0.5736    8.6731 C   0  0  0  0  0  0  0  0  0  0  0  0
   -2.7541    0.7624    7.6427 C   0  0  0  0  0  0  0  0  0  0  0  0
   -1.8339    1.7707    7.8026 C   0  0  0  0  0  0  0  0  0  0  0  0
   -2.8124   -0.1225    6.4415 C   0  0  0  0  0  0  0  0  0  0  0  0
   -2.7217    3.1652   11.1407 N   0  0  0  0  0  0  0  0  0  0  0  0
   -2.6284    4.5052   11.1903 N   0  0  0  0  0  0  0  0  0  0  0  0
   -2.6613    4.9418   12.4532 C   0  0  0  0  0  0  0  0  0  0  0  0
   -2.7806    3.8208   13.2432 C   0  0  0  0  0  0  0  0  0  0  0  0
   -2.8114    2.7898   12.3857 N   0  0  0  0  0  0  0  0  0  0  0  0
    3.5950    0.9525   11.7764 C   0  0  0  0  0  0  0  0  0  0  0  0
    3.5024   -0.3664   12.0259 N   0  0  0  0  0  0  0  0  0  0  0  0
    4.5600   -0.7545   12.7539 C   0  0  0  0  0  0  0  0  0  0  0  0
    5.3234    0.3762   12.9521 C   0  0  0  0  0  0  0  0  0  0  0  0
    4.7226    1.3623   12.3620 O   0  0  0  0  0  0  0  0  0  0  0  0
    6.4970    0.3201   13.6710 C   0  0  0  0  0  0  0  0  0  0  0  0
    6.9558   -0.8731   14.2224 C   0  0  0  0  0  0  0  0  0  0  0  0
    6.1764   -2.0086   14.0164 C   0  0  0  0  0  0  0  0  0  0  0  0
    5.0033   -1.9535   13.2982 C   0  0  0  0  0  0  0  0  0  0  0  0
    6.7366   -3.5372   14.7049 Cl  0  0  0  0  0  0  0  0  0  0  0  0
  1  2  1  0
  2  3  1  0
  3  4  1  0
  4  5  1  0
  5  6  1  0
  6  7  1  0
  7  8  1  0
  8  9  1  0
  9 10  2  0
  9 11  1  0
 11 12  1  0
 12 13  2  0
 13 14  1  0
 14 15  2  0
 15 16  1  0
 15 17  1  0
 12 18  1  0
 18 19  1  0
 19 20  2  0
 20 21  1  0
 21 22  2  0
  5 23  1  0
 23 24  2  0
 24 25  1  0
 25 26  2  0
 26 27  1  0
 26 28  1  0
 28 29  2  0
 29 30  1  0
 30 31  2  0
 30 32  1  0
  8  2  1  0
 16 11  2  0
 22 18  1  0
 27 23  1  0
 31 25  1  0
M  END
$$$$
