
     RDKit          3D

 32 36  0  0  0  0  0  0  0  0999 V2000
    4.0891    1.1299   13.5705 C   0  0  0  0  0  0  0  0  0  0  0  0
    3.1875    1.3020   12.3956 C   0  0  0  0  0  0  0  0  0  0  0  0
    3.2854    2.7016   11.9004 C   0  0  0  0  0  0  0  0  0  0  0  0
    3.1564    2.6568   10.3807 C   0  0  0  0  0  0  0  0  0  0  0  0
    1.7237    2.7102   10.0835 N   0  0  0  0  0  0  0  0  0  0  0  0
    0.6283    2.1325   10.8059 C   0  0  0  0  0  0  0  0  0  0  0  0
    0.8590    0.8313   11.4603 C   0  0  0  0  0  0  0  0  0  0  0  0
    1.8468    0.8189   12.5284 N   0  0  0  0  0  0  0  0  0  0  0  0
    1.4445    0.2328   13.7625 C   0  0  0  0  0  0  0  0  0  0  0  0
    1.9477    0.6494   14.8292 O   0  0  0  0  0  0  0  0  0  0  0  0
    0.4757   -0.8308   13.8151 C   0  0  0  0  0  0  0  0  0  0  0  0
   -0.8645   -0.5501   13.8869 C   0  0  0  0  0  0  0  0  0  0  0  0
   -1.7559   -1.5926   13.9514 C   0  0  0  0  0  0  0  0  0  0  0  0
   -1.3392   -2.9137   13.9465 C   0  0  0  0  0  0  0  0  0  0  0  0
    0.0160   -3.2269   13.8751 C   0  0  0  0  0  0  0  0  0  0  0  0
    0.8979   -2.1748   13.8102 C   0  0  0  0  0  0  0  0  0  0  0  0
    0.4352   -4.6599   13.8745 C   0  0  0  0  0  0  0  0  0  0  0  0
   -1.3568    0.7886   13.9130 N   0  0  0  0  0  0  0  0  0  0  0  0
   -0.9601    1.7450   14.7702 N   0  0  0  0  0  0  0  0  0  0  0  0
   -1.6090    2.8913   14.5436 C   0  0  0  0  0  0  0  0  0  0  0  0
   -2.4605    2.6477   13.4897 C   0  0  0  0  0  0  0  0  0  0  0  0
   -2.2539    1.3634   13.1622 N   0  0  0  0  0  0  0  0  0  0  0  0
    1.3921    3.4614    8.9307 C   0  0  0  0  0  0  0  0  0  0  0  0
    0.5817    3.1831    7.8932 N   0  0  0  0  0  0  0  0  0  0  0  0
    0.5880    4.2158    7.0372 C   0  0  0  0  0  0  0  0  0  0  0  0
    1.4367    5.1570    7.5798 C   0  0  0  0  0  0  0  0  0  0  0  0
    1.8919    4.6767    8.6949 O   0  0  0  0  0  0  0  0  0  0  0  0
    1.6663    6.3547    6.9395 C   0  0  0  0  0  0  0  0  0  0  0  0
    1.0545    6.6602    5.7269 C   0  0  0  0  0  0  0  0  0  0  0  0
    0.1998    5.7019    5.1879 C   0  0  0  0  0  0  0  0  0  0  0  0
   -0.0303    4.5046    5.8270 C   0  0  0  0  0  0  0  0  0  0  0  0
   -0.5910    6.0650    3.6494 Cl  0  0  0  0  0  0  0  0  0  0  0  0
  1  2  1  0
  2  3  1  0
  3  4  1  0
  4  5  1  0
  5  6  1  0
  6  7  1  0
  7  8  1  0
  8  9  1  0
  9 10  2  0
  9 11  1  0
 11 12  1  0
 12 13  2  0
 13 14  1  0
 14 15  2  0
 15 16  1  0
 15 17  1  0
 12 18  1  0
 18 19  1  0
 19 20  2  0
 20 21  1  0
 21 22  2  0
  5 23  1  0
 23 24  2  0
 24 25  1  0
 25 26  2  0
 26 27  1  0
 26 28  1  0
 28 29  2  0
 29 30  1  0
 30 31  2  0
 30 32  1  0
  8  2  1  0
 16 11  2  0
 22 18  1  0
 27 23  1  0
 31 25  1  0
M  END
$$$$
