
     RDKit          3D

 32 36  0  0  0  0  0  0  0  0999 V2000
    0.0195    5.2627   11.2291 C   0  0  0  0  0  0  0  0  0  0  0  0
    0.4956    3.8807   11.5230 C   0  0  0  0  0  0  0  0  0  0  0  0
    1.9732    3.8234   11.3581 C   0  0  0  0  0  0  0  0  0  0  0  0
    2.5121    2.8630   12.4143 C   0  0  0  0  0  0  0  0  0  0  0  0
    2.4499    1.5229   11.8280 N   0  0  0  0  0  0  0  0  0  0  0  0
    1.4677    0.9678   10.9432 C   0  0  0  0  0  0  0  0  0  0  0  0
    0.0685    1.3945   11.1305 C   0  0  0  0  0  0  0  0  0  0  0  0
   -0.2072    2.8034   10.8953 N   0  0  0  0  0  0  0  0  0  0  0  0
   -1.2888    3.1041   10.0189 C   0  0  0  0  0  0  0  0  0  0  0  0
   -2.2202    3.8330   10.4260 O   0  0  0  0  0  0  0  0  0  0  0  0
   -1.3411    2.5874    8.6762 C   0  0  0  0  0  0  0  0  0  0  0  0
   -0.7496    3.2686    7.6436 C   0  0  0  0  0  0  0  0  0  0  0  0
   -0.8353    2.7506    6.3748 C   0  0  0  0  0  0  0  0  0  0  0  0
   -1.5007    1.5644    6.1115 C   0  0  0  0  0  0  0  0  0  0  0  0
   -2.1109    0.8528    7.1416 C   0  0  0  0  0  0  0  0  0  0  0  0
   -2.0174    1.3813    8.4068 C   0  0  0  0  0  0  0  0  0  0  0  0
   -2.8233   -0.4210    6.8269 C   0  0  0  0  0  0  0  0  0  0  0  0
   -0.0645    4.5034    7.8460 N   0  0  0  0  0  0  0  0  0  0  0  0
    1.1446    4.8114    7.3461 N   0  0  0  0  0  0  0  0  0  0  0  0
    1.5175    6.0405    7.7158 C   0  0  0  0  0  0  0  0  0  0  0  0
    0.4924    6.5354    8.4899 C   0  0  0  0  0  0  0  0  0  0  0  0
   -0.4244    5.5568    8.5240 N   0  0  0  0  0  0  0  0  0  0  0  0
    3.5320    0.6799   12.1768 C   0  0  0  0  0  0  0  0  0  0  0  0
    4.1175    0.4327   13.3627 N   0  0  0  0  0  0  0  0  0  0  0  0
    5.1134   -0.4490   13.1894 C   0  0  0  0  0  0  0  0  0  0  0  0
    5.1302   -0.7472   11.8436 C   0  0  0  0  0  0  0  0  0  0  0  0
    4.1845   -0.0626   11.2793 O   0  0  0  0  0  0  0  0  0  0  0  0
    6.0469   -1.6364   11.3277 C   0  0  0  0  0  0  0  0  0  0  0  0
    6.9869   -2.2650   12.1397 C   0  0  0  0  0  0  0  0  0  0  0  0
    6.9611   -1.9558   13.4973 C   0  0  0  0  0  0  0  0  0  0  0  0
    6.0453   -1.0673   14.0139 C   0  0  0  0  0  0  0  0  0  0  0  0
    8.1432   -2.7410   14.5510 Cl  0  0  0  0  0  0  0  0  0  0  0  0
  1  2  1  0
  2  3  1  0
  3  4  1  0
  4  5  1  0
  5  6  1  0
  6  7  1  0
  7  8  1  0
  8  9  1  0
  9 10  2  0
  9 11  1  0
 11 12  1  0
 12 13  2  0
 13 14  1  0
 14 15  2  0
 15 16  1  0
 15 17  1  0
 12 18  1  0
 18 19  1  0
 19 20  2  0
 20 21  1  0
 21 22  2  0
  5 23  1  0
 23 24  2  0
 24 25  1  0
 25 26  2  0
 26 27  1  0
 26 28  1  0
 28 29  2  0
 29 30  1  0
 30 31  2  0
 30 32  1  0
  8  2  1  0
 16 11  2  0
 22 18  1  0
 27 23  1  0
 31 25  1  0
M  END
$$$$
