
     RDKit          3D

 32 36  0  0  0  0  0  0  0  0999 V2000
    1.1074    5.6685    8.5391 C   0  0  0  0  0  0  0  0  0  0  0  0
    1.2279    4.6484    9.6198 C   0  0  0  0  0  0  0  0  0  0  0  0
    2.4362    3.8146    9.3776 C   0  0  0  0  0  0  0  0  0  0  0  0
    3.0324    3.4709   10.7394 C   0  0  0  0  0  0  0  0  0  0  0  0
    2.3535    2.2566   11.1957 N   0  0  0  0  0  0  0  0  0  0  0  0
    0.9884    1.8598   11.0098 C   0  0  0  0  0  0  0  0  0  0  0  0
   -0.0334    2.9230   11.0163 C   0  0  0  0  0  0  0  0  0  0  0  0
    0.0518    3.8983    9.9401 N   0  0  0  0  0  0  0  0  0  0  0  0
   -1.1435    4.1436    9.2055 C   0  0  0  0  0  0  0  0  0  0  0  0
   -1.6014    5.3065    9.1551 O   0  0  0  0  0  0  0  0  0  0  0  0
   -1.8422    3.0867    8.5219 C   0  0  0  0  0  0  0  0  0  0  0  0
   -1.1736    1.9641    8.1061 C   0  0  0  0  0  0  0  0  0  0  0  0
   -1.8728    0.9856    7.4433 C   0  0  0  0  0  0  0  0  0  0  0  0
   -3.2287    1.1023    7.1843 C   0  0  0  0  0  0  0  0  0  0  0  0
   -3.9318    2.2322    7.5948 C   0  0  0  0  0  0  0  0  0  0  0  0
   -3.2210    3.2039    8.2577 C   0  0  0  0  0  0  0  0  0  0  0  0
   -5.3920    2.3311    7.2989 C   0  0  0  0  0  0  0  0  0  0  0  0
    0.2251    1.7913    8.3268 N   0  0  0  0  0  0  0  0  0  0  0  0
    0.7803    0.8087    9.0570 N   0  0  0  0  0  0  0  0  0  0  0  0
    2.1120    0.9204    9.0775 C   0  0  0  0  0  0  0  0  0  0  0  0
    2.4152    2.0308    8.3225 C   0  0  0  0  0  0  0  0  0  0  0  0
    1.2317    2.5027    7.9030 N   0  0  0  0  0  0  0  0  0  0  0  0
    3.1837    1.3494   11.8965 C   0  0  0  0  0  0  0  0  0  0  0  0
    4.1697    0.5388   11.4708 N   0  0  0  0  0  0  0  0  0  0  0  0
    4.6693   -0.1372   12.5161 C   0  0  0  0  0  0  0  0  0  0  0  0
    3.9563    0.2824   13.6189 C   0  0  0  0  0  0  0  0  0  0  0  0
    3.0895    1.1579   13.2144 O   0  0  0  0  0  0  0  0  0  0  0  0
    4.2264   -0.2250   14.8706 C   0  0  0  0  0  0  0  0  0  0  0  0
    5.2237   -1.1755   15.0704 C   0  0  0  0  0  0  0  0  0  0  0  0
    5.9371   -1.5924   13.9494 C   0  0  0  0  0  0  0  0  0  0  0  0
    5.6679   -1.0860   12.6980 C   0  0  0  0  0  0  0  0  0  0  0  0
    7.2099   -2.7978   14.1753 Cl  0  0  0  0  0  0  0  0  0  0  0  0
  1  2  1  0
  2  3  1  0
  3  4  1  0
  4  5  1  0
  5  6  1  0
  6  7  1  0
  7  8  1  0
  8  9  1  0
  9 10  2  0
  9 11  1  0
 11 12  1  0
 12 13  2  0
 13 14  1  0
 14 15  2  0
 15 16  1  0
 15 17  1  0
 12 18  1  0
 18 19  1  0
 19 20  2  0
 20 21  1  0
 21 22  2  0
  5 23  1  0
 23 24  2  0
 24 25  1  0
 25 26  2  0
 26 27  1  0
 26 28  1  0
 28 29  2  0
 29 30  1  0
 30 31  2  0
 30 32  1  0
  8  2  1  0
 16 11  2  0
 22 18  1  0
 27 23  1  0
 31 25  1  0
M  END
$$$$
