
     RDKit          3D

 32 36  0  0  0  0  0  0  0  0999 V2000
    1.3274    6.3385    9.5992 C   0  0  0  0  0  0  0  0  0  0  0  0
    1.4450    5.0066   10.2589 C   0  0  0  0  0  0  0  0  0  0  0  0
    2.8556    4.5399   10.1784 C   0  0  0  0  0  0  0  0  0  0  0  0
    3.1590    3.7834   11.4683 C   0  0  0  0  0  0  0  0  0  0  0  0
    2.7453    2.3970   11.2441 N   0  0  0  0  0  0  0  0  0  0  0  0
    1.6336    1.8958   10.4902 C   0  0  0  0  0  0  0  0  0  0  0  0
    0.3930    2.6930   10.5007 C   0  0  0  0  0  0  0  0  0  0  0  0
    0.4774    4.0151    9.8995 N   0  0  0  0  0  0  0  0  0  0  0  0
   -0.5135    4.3390    8.9292 C   0  0  0  0  0  0  0  0  0  0  0  0
   -0.6670    5.5326    8.5880 O   0  0  0  0  0  0  0  0  0  0  0  0
   -1.3476    3.3285    8.3326 C   0  0  0  0  0  0  0  0  0  0  0  0
   -2.2515    2.6324    9.0932 C   0  0  0  0  0  0  0  0  0  0  0  0
   -3.0173    1.6654    8.4899 C   0  0  0  0  0  0  0  0  0  0  0  0
   -2.9012    1.3757    7.1403 C   0  0  0  0  0  0  0  0  0  0  0  0
   -1.9907    2.0670    6.3449 C   0  0  0  0  0  0  0  0  0  0  0  0
   -1.2307    3.0327    6.9603 C   0  0  0  0  0  0  0  0  0  0  0  0
   -1.8859    1.7307    4.8939 C   0  0  0  0  0  0  0  0  0  0  0  0
   -2.4069    2.8712   10.4910 N   0  0  0  0  0  0  0  0  0  0  0  0
   -2.3027    1.9394   11.4541 N   0  0  0  0  0  0  0  0  0  0  0  0
   -2.5041    2.4740   12.6625 C   0  0  0  0  0  0  0  0  0  0  0  0
   -2.7492    3.8124   12.4534 C   0  0  0  0  0  0  0  0  0  0  0  0
   -2.6741    3.9787   11.1244 N   0  0  0  0  0  0  0  0  0  0  0  0
    3.5868    1.4301   11.8445 C   0  0  0  0  0  0  0  0  0  0  0  0
    3.7023    1.0254   13.1225 N   0  0  0  0  0  0  0  0  0  0  0  0
    4.6451    0.0746   13.2022 C   0  0  0  0  0  0  0  0  0  0  0  0
    5.1185   -0.1029   11.9197 C   0  0  0  0  0  0  0  0  0  0  0  0
    4.4716    0.7134   11.1474 O   0  0  0  0  0  0  0  0  0  0  0  0
    6.1076   -1.0234   11.6522 C   0  0  0  0  0  0  0  0  0  0  0  0
    6.6650   -1.8058   12.6598 C   0  0  0  0  0  0  0  0  0  0  0  0
    6.1795   -1.6175   13.9514 C   0  0  0  0  0  0  0  0  0  0  0  0
    5.1910   -0.6978   14.2199 C   0  0  0  0  0  0  0  0  0  0  0  0
    6.8692   -2.5990   15.2497 Cl  0  0  0  0  0  0  0  0  0  0  0  0
  1  2  1  0
  2  3  1  0
  3  4  1  0
  4  5  1  0
  5  6  1  0
  6  7  1  0
  7  8  1  0
  8  9  1  0
  9 10  2  0
  9 11  1  0
 11 12  1  0
 12 13  2  0
 13 14  1  0
 14 15  2  0
 15 16  1  0
 15 17  1  0
 12 18  1  0
 18 19  1  0
 19 20  2  0
 20 21  1  0
 21 22  2  0
  5 23  1  0
 23 24  2  0
 24 25  1  0
 25 26  2  0
 26 27  1  0
 26 28  1  0
 28 29  2  0
 29 30  1  0
 30 31  2  0
 30 32  1  0
  8  2  1  0
 16 11  2  0
 22 18  1  0
 27 23  1  0
 31 25  1  0
M  END
$$$$
