
     RDKit          3D

 32 36  0  0  0  0  0  0  0  0999 V2000
    0.4588    5.5389   10.4090 C   0  0  0  0  0  0  0  0  0  0  0  0
    0.8065    4.2125   10.9945 C   0  0  0  0  0  0  0  0  0  0  0  0
    2.2718    3.9873   10.8682 C   0  0  0  0  0  0  0  0  0  0  0  0
    2.7242    3.2264   12.1110 C   0  0  0  0  0  0  0  0  0  0  0  0
    2.5360    1.8041   11.8190 N   0  0  0  0  0  0  0  0  0  0  0  0
    1.5031    1.1667   11.0559 C   0  0  0  0  0  0  0  0  0  0  0  0
    0.1501    1.7489   11.1276 C   0  0  0  0  0  0  0  0  0  0  0  0
    0.0046    3.0957   10.5969 N   0  0  0  0  0  0  0  0  0  0  0  0
   -1.0482    3.3019    9.6602 C   0  0  0  0  0  0  0  0  0  0  0  0
   -1.6549    4.3957    9.6544 O   0  0  0  0  0  0  0  0  0  0  0  0
   -1.4364    2.2821    8.7211 C   0  0  0  0  0  0  0  0  0  0  0  0
   -1.4702    2.5489    7.3766 C   0  0  0  0  0  0  0  0  0  0  0  0
   -1.8612    1.5540    6.5147 C   0  0  0  0  0  0  0  0  0  0  0  0
   -2.2212    0.2945    6.9653 C   0  0  0  0  0  0  0  0  0  0  0  0
   -2.1966   -0.0031    8.3256 C   0  0  0  0  0  0  0  0  0  0  0  0
   -1.8028    1.0008    9.1778 C   0  0  0  0  0  0  0  0  0  0  0  0
   -2.5928   -1.3685    8.7817 C   0  0  0  0  0  0  0  0  0  0  0  0
   -1.1280    3.8301    6.8507 N   0  0  0  0  0  0  0  0  0  0  0  0
   -1.8761    4.9410    6.9646 N   0  0  0  0  0  0  0  0  0  0  0  0
   -1.2869    5.9796    6.3639 C   0  0  0  0  0  0  0  0  0  0  0  0
   -0.1061    5.5013    5.8425 C   0  0  0  0  0  0  0  0  0  0  0  0
   -0.0775    4.2019    6.1745 N   0  0  0  0  0  0  0  0  0  0  0  0
    3.5371    0.9586   12.3541 C   0  0  0  0  0  0  0  0  0  0  0  0
    4.6870    1.2398   12.9937 N   0  0  0  0  0  0  0  0  0  0  0  0
    5.3067    0.0943   13.3144 C   0  0  0  0  0  0  0  0  0  0  0  0
    4.4979   -0.9209   12.8501 C   0  0  0  0  0  0  0  0  0  0  0  0
    3.4649   -0.3729   12.2896 O   0  0  0  0  0  0  0  0  0  0  0  0
    4.8507   -2.2411   13.0226 C   0  0  0  0  0  0  0  0  0  0  0  0
    6.0305   -2.6003   13.6685 C   0  0  0  0  0  0  0  0  0  0  0  0
    6.8400   -1.5666   14.1328 C   0  0  0  0  0  0  0  0  0  0  0  0
    6.4883   -0.2468   13.9609 C   0  0  0  0  0  0  0  0  0  0  0  0
    8.3434   -1.9949   14.9577 Cl  0  0  0  0  0  0  0  0  0  0  0  0
  1  2  1  0
  2  3  1  0
  3  4  1  0
  4  5  1  0
  5  6  1  0
  6  7  1  0
  7  8  1  0
  8  9  1  0
  9 10  2  0
  9 11  1  0
 11 12  1  0
 12 13  2  0
 13 14  1  0
 14 15  2  0
 15 16  1  0
 15 17  1  0
 12 18  1  0
 18 19  1  0
 19 20  2  0
 20 21  1  0
 21 22  2  0
  5 23  1  0
 23 24  2  0
 24 25  1  0
 25 26  2  0
 26 27  1  0
 26 28  1  0
 28 29  2  0
 29 30  1  0
 30 31  2  0
 30 32  1  0
  8  2  1  0
 16 11  2  0
 22 18  1  0
 27 23  1  0
 31 25  1  0
M  END
$$$$
