
     RDKit          3D

 32 36  0  0  0  0  0  0  0  0999 V2000
   -0.7468    2.3456    8.4231 C   0  0  0  0  0  0  0  0  0  0  0  0
    0.6042    2.1143    9.0100 C   0  0  0  0  0  0  0  0  0  0  0  0
    0.4811    1.2184   10.1915 C   0  0  0  0  0  0  0  0  0  0  0  0
    1.7192    0.3269   10.2176 C   0  0  0  0  0  0  0  0  0  0  0  0
    2.7473    1.0651   10.9536 N   0  0  0  0  0  0  0  0  0  0  0  0
    3.0099    2.4745   10.9718 C   0  0  0  0  0  0  0  0  0  0  0  0
    2.7933    3.2205    9.7183 C   0  0  0  0  0  0  0  0  0  0  0  0
    1.4236    3.2670    9.2303 N   0  0  0  0  0  0  0  0  0  0  0  0
    0.9049    4.5533    8.9069 C   0  0  0  0  0  0  0  0  0  0  0  0
    1.5053    5.5733    9.3116 O   0  0  0  0  0  0  0  0  0  0  0  0
   -0.2960    4.7115    8.1289 C   0  0  0  0  0  0  0  0  0  0  0  0
   -1.5248    4.7202    8.7375 C   0  0  0  0  0  0  0  0  0  0  0  0
   -2.6473    4.8575    7.9587 C   0  0  0  0  0  0  0  0  0  0  0  0
   -2.5719    4.9861    6.5814 C   0  0  0  0  0  0  0  0  0  0  0  0
   -1.3368    4.9796    5.9377 C   0  0  0  0  0  0  0  0  0  0  0  0
   -0.2210    4.8424    6.7283 C   0  0  0  0  0  0  0  0  0  0  0  0
   -1.2871    5.1172    4.4519 C   0  0  0  0  0  0  0  0  0  0  0  0
   -1.6709    4.5749   10.1490 N   0  0  0  0  0  0  0  0  0  0  0  0
   -1.9085    5.5775   11.0122 N   0  0  0  0  0  0  0  0  0  0  0  0
   -1.9903    5.1216   12.2660 C   0  0  0  0  0  0  0  0  0  0  0  0
   -1.7935    3.7612   12.1927 C   0  0  0  0  0  0  0  0  0  0  0  0
   -1.6084    3.5039   10.8893 N   0  0  0  0  0  0  0  0  0  0  0  0
    3.5725    0.2597   11.7743 C   0  0  0  0  0  0  0  0  0  0  0  0
    4.5327   -0.6307   11.4651 N   0  0  0  0  0  0  0  0  0  0  0  0
    5.0391   -1.1460   12.5952 C   0  0  0  0  0  0  0  0  0  0  0  0
    4.3574   -0.5418   13.6300 C   0  0  0  0  0  0  0  0  0  0  0  0
    3.5010    0.2796   13.1073 O   0  0  0  0  0  0  0  0  0  0  0  0
    4.6422   -0.8527   14.9412 C   0  0  0  0  0  0  0  0  0  0  0  0
    5.6234   -1.7835   15.2714 C   0  0  0  0  0  0  0  0  0  0  0  0
    6.3052   -2.3878   14.2182 C   0  0  0  0  0  0  0  0  0  0  0  0
    6.0213   -2.0778   12.9073 C   0  0  0  0  0  0  0  0  0  0  0  0
    7.5571   -3.5727   14.6096 Cl  0  0  0  0  0  0  0  0  0  0  0  0
  1  2  1  0
  2  3  1  0
  3  4  1  0
  4  5  1  0
  5  6  1  0
  6  7  1  0
  7  8  1  0
  8  9  1  0
  9 10  2  0
  9 11  1  0
 11 12  1  0
 12 13  2  0
 13 14  1  0
 14 15  2  0
 15 16  1  0
 15 17  1  0
 12 18  1  0
 18 19  1  0
 19 20  2  0
 20 21  1  0
 21 22  2  0
  5 23  1  0
 23 24  2  0
 24 25  1  0
 25 26  2  0
 26 27  1  0
 26 28  1  0
 28 29  2  0
 29 30  1  0
 30 31  2  0
 30 32  1  0
  8  2  1  0
 16 11  2  0
 22 18  1  0
 27 23  1  0
 31 25  1  0
M  END
$$$$
