
     RDKit          3D

 32 36  0  0  0  0  0  0  0  0999 V2000
    0.1587    4.7152    8.9101 C   0  0  0  0  0  0  0  0  0  0  0  0
    0.6445    3.7366    9.9247 C   0  0  0  0  0  0  0  0  0  0  0  0
    1.8846    3.0837    9.4248 C   0  0  0  0  0  0  0  0  0  0  0  0
    2.7912    2.8466   10.6290 C   0  0  0  0  0  0  0  0  0  0  0  0
    2.4030    1.5525   11.1931 N   0  0  0  0  0  0  0  0  0  0  0  0
    1.1007    0.9599   11.2840 C   0  0  0  0  0  0  0  0  0  0  0  0
   -0.0404    1.8640   11.5190 C   0  0  0  0  0  0  0  0  0  0  0  0
   -0.3199    2.8280   10.4659 N   0  0  0  0  0  0  0  0  0  0  0  0
   -1.6632    2.8886    9.9966 C   0  0  0  0  0  0  0  0  0  0  0  0
   -2.5794    3.1659   10.8018 O   0  0  0  0  0  0  0  0  0  0  0  0
   -1.9959    2.6349    8.6192 C   0  0  0  0  0  0  0  0  0  0  0  0
   -1.3541    3.3080    7.6116 C   0  0  0  0  0  0  0  0  0  0  0  0
   -1.7114    3.0491    6.3113 C   0  0  0  0  0  0  0  0  0  0  0  0
   -2.6985    2.1311    5.9920 C   0  0  0  0  0  0  0  0  0  0  0  0
   -3.3668    1.4342    6.9958 C   0  0  0  0  0  0  0  0  0  0  0  0
   -2.9995    1.7018    8.2929 C   0  0  0  0  0  0  0  0  0  0  0  0
   -4.4282    0.4531    6.6213 C   0  0  0  0  0  0  0  0  0  0  0  0
   -0.3414    4.2775    7.8748 N   0  0  0  0  0  0  0  0  0  0  0  0
   -0.3794    5.5644    7.4884 N   0  0  0  0  0  0  0  0  0  0  0  0
    0.7186    6.2164    7.8831 C   0  0  0  0  0  0  0  0  0  0  0  0
    1.4915    5.2948    8.5527 C   0  0  0  0  0  0  0  0  0  0  0  0
    0.7908    4.1518    8.5084 N   0  0  0  0  0  0  0  0  0  0  0  0
    3.4815    0.7837   11.6922 C   0  0  0  0  0  0  0  0  0  0  0  0
    4.1319    0.8270   12.8693 N   0  0  0  0  0  0  0  0  0  0  0  0
    5.0912   -0.1104   12.8797 C   0  0  0  0  0  0  0  0  0  0  0  0
    5.0173   -0.7467   11.6589 C   0  0  0  0  0  0  0  0  0  0  0  0
    4.0575   -0.1921   10.9862 O   0  0  0  0  0  0  0  0  0  0  0  0
    5.8765   -1.7765   11.3451 C   0  0  0  0  0  0  0  0  0  0  0  0
    6.8473   -2.2128   12.2424 C   0  0  0  0  0  0  0  0  0  0  0  0
    6.9132   -1.5625   13.4721 C   0  0  0  0  0  0  0  0  0  0  0  0
    6.0550   -0.5331   13.7868 C   0  0  0  0  0  0  0  0  0  0  0  0
    8.1362   -2.0976   14.6307 Cl  0  0  0  0  0  0  0  0  0  0  0  0
  1  2  1  0
  2  3  1  0
  3  4  1  0
  4  5  1  0
  5  6  1  0
  6  7  1  0
  7  8  1  0
  8  9  1  0
  9 10  2  0
  9 11  1  0
 11 12  1  0
 12 13  2  0
 13 14  1  0
 14 15  2  0
 15 16  1  0
 15 17  1  0
 12 18  1  0
 18 19  1  0
 19 20  2  0
 20 21  1  0
 21 22  2  0
  5 23  1  0
 23 24  2  0
 24 25  1  0
 25 26  2  0
 26 27  1  0
 26 28  1  0
 28 29  2  0
 29 30  1  0
 30 31  2  0
 30 32  1  0
  8  2  1  0
 16 11  2  0
 22 18  1  0
 27 23  1  0
 31 25  1  0
M  END
$$$$
