
     RDKit          3D

 32 36  0  0  0  0  0  0  0  0999 V2000
    1.4549    5.4598    8.9407 C   0  0  0  0  0  0  0  0  0  0  0  0
    1.5442    4.3101    9.8858 C   0  0  0  0  0  0  0  0  0  0  0  0
    2.8841    3.6749    9.7633 C   0  0  0  0  0  0  0  0  0  0  0  0
    3.2934    3.2037   11.1556 C   0  0  0  0  0  0  0  0  0  0  0  0
    2.7331    1.8612   11.3215 N   0  0  0  0  0  0  0  0  0  0  0  0
    1.4891    1.3349   10.8406 C   0  0  0  0  0  0  0  0  0  0  0  0
    0.3364    2.2535   10.7966 C   0  0  0  0  0  0  0  0  0  0  0  0
    0.4534    3.3834    9.8876 N   0  0  0  0  0  0  0  0  0  0  0  0
   -0.6285    3.5907    8.9850 C   0  0  0  0  0  0  0  0  0  0  0  0
   -0.7073    4.6740    8.3647 O   0  0  0  0  0  0  0  0  0  0  0  0
   -1.6379    2.5869    8.7700 C   0  0  0  0  0  0  0  0  0  0  0  0
   -2.5854    2.3347    9.7285 C   0  0  0  0  0  0  0  0  0  0  0  0
   -3.5215    1.3583    9.4920 C   0  0  0  0  0  0  0  0  0  0  0  0
   -3.5335    0.6246    8.3170 C   0  0  0  0  0  0  0  0  0  0  0  0
   -2.5823    0.8599    7.3272 C   0  0  0  0  0  0  0  0  0  0  0  0
   -1.6514    1.8400    7.5757 C   0  0  0  0  0  0  0  0  0  0  0  0
   -2.6186    0.0513    6.0726 C   0  0  0  0  0  0  0  0  0  0  0  0
   -2.6167    3.0431   10.9663 N   0  0  0  0  0  0  0  0  0  0  0  0
   -2.7753    4.3715   11.0967 N   0  0  0  0  0  0  0  0  0  0  0  0
   -2.7577    4.7325   12.3835 C   0  0  0  0  0  0  0  0  0  0  0  0
   -2.5777    3.5735   13.1043 C   0  0  0  0  0  0  0  0  0  0  0  0
   -2.5019    2.5985   12.1862 N   0  0  0  0  0  0  0  0  0  0  0  0
    3.5606    0.9655   12.0400 C   0  0  0  0  0  0  0  0  0  0  0  0
    3.4075   -0.3371   12.3402 N   0  0  0  0  0  0  0  0  0  0  0  0
    4.4690   -0.7568   13.0446 C   0  0  0  0  0  0  0  0  0  0  0  0
    5.2980    0.3370   13.1751 C   0  0  0  0  0  0  0  0  0  0  0  0
    4.7290    1.3333   12.5709 O   0  0  0  0  0  0  0  0  0  0  0  0
    6.4924    0.2419   13.8543 C   0  0  0  0  0  0  0  0  0  0  0  0
    6.9072   -0.9547   14.4323 C   0  0  0  0  0  0  0  0  0  0  0  0
    6.0617   -2.0527   14.2948 C   0  0  0  0  0  0  0  0  0  0  0  0
    4.8677   -1.9588   13.6161 C   0  0  0  0  0  0  0  0  0  0  0  0
    6.5650   -3.5849   15.0183 Cl  0  0  0  0  0  0  0  0  0  0  0  0
  1  2  1  0
  2  3  1  0
  3  4  1  0
  4  5  1  0
  5  6  1  0
  6  7  1  0
  7  8  1  0
  8  9  1  0
  9 10  2  0
  9 11  1  0
 11 12  1  0
 12 13  2  0
 13 14  1  0
 14 15  2  0
 15 16  1  0
 15 17  1  0
 12 18  1  0
 18 19  1  0
 19 20  2  0
 20 21  1  0
 21 22  2  0
  5 23  1  0
 23 24  2  0
 24 25  1  0
 25 26  2  0
 26 27  1  0
 26 28  1  0
 28 29  2  0
 29 30  1  0
 30 31  2  0
 30 32  1  0
  8  2  1  0
 16 11  2  0
 22 18  1  0
 27 23  1  0
 31 25  1  0
M  END
$$$$
