
     RDKit          3D

 32 36  0  0  0  0  0  0  0  0999 V2000
    1.1609    6.3673    9.8262 C   0  0  0  0  0  0  0  0  0  0  0  0
    1.2455    5.0503   10.5200 C   0  0  0  0  0  0  0  0  0  0  0  0
    2.6164    4.4953   10.3577 C   0  0  0  0  0  0  0  0  0  0  0  0
    2.9652    3.7592   11.6479 C   0  0  0  0  0  0  0  0  0  0  0  0
    2.4548    2.3950   11.4992 N   0  0  0  0  0  0  0  0  0  0  0  0
    1.2643    1.9418   10.8411 C   0  0  0  0  0  0  0  0  0  0  0  0
    0.0774    2.8142   10.9109 C   0  0  0  0  0  0  0  0  0  0  0  0
    0.1974    4.1105   10.2616 N   0  0  0  0  0  0  0  0  0  0  0  0
   -0.8389    4.4668    9.3521 C   0  0  0  0  0  0  0  0  0  0  0  0
   -1.2345    5.6527    9.3111 O   0  0  0  0  0  0  0  0  0  0  0  0
   -1.4474    3.4963    8.4800 C   0  0  0  0  0  0  0  0  0  0  0  0
   -1.9287    2.3140    8.9808 C   0  0  0  0  0  0  0  0  0  0  0  0
   -2.4876    1.4076    8.1139 C   0  0  0  0  0  0  0  0  0  0  0  0
   -2.5773    1.6544    6.7537 C   0  0  0  0  0  0  0  0  0  0  0  0
   -2.0957    2.8466    6.2186 C   0  0  0  0  0  0  0  0  0  0  0  0
   -1.5393    3.7458    7.0966 C   0  0  0  0  0  0  0  0  0  0  0  0
   -2.2035    3.0833    4.7484 C   0  0  0  0  0  0  0  0  0  0  0  0
   -1.8508    1.9927   10.3685 N   0  0  0  0  0  0  0  0  0  0  0  0
   -0.9847    1.1231   10.9166 N   0  0  0  0  0  0  0  0  0  0  0  0
   -1.1634    1.0369   12.2384 C   0  0  0  0  0  0  0  0  0  0  0  0
   -2.1960    1.8950   12.5422 C   0  0  0  0  0  0  0  0  0  0  0  0
   -2.5592    2.4350   11.3693 N   0  0  0  0  0  0  0  0  0  0  0  0
    3.2777    1.3959   12.0716 C   0  0  0  0  0  0  0  0  0  0  0  0
    3.5878    1.1290   13.3534 N   0  0  0  0  0  0  0  0  0  0  0  0
    4.4117    0.0715   13.3985 C   0  0  0  0  0  0  0  0  0  0  0  0
    4.6071   -0.3171   12.0903 C   0  0  0  0  0  0  0  0  0  0  0  0
    3.9235    0.4871   11.3371 O   0  0  0  0  0  0  0  0  0  0  0  0
    5.4133   -1.3912   11.7846 C   0  0  0  0  0  0  0  0  0  0  0  0
    6.0586   -2.1224   12.7781 C   0  0  0  0  0  0  0  0  0  0  0  0
    5.8544   -1.7206   14.0958 C   0  0  0  0  0  0  0  0  0  0  0  0
    5.0490   -0.6472   14.4024 C   0  0  0  0  0  0  0  0  0  0  0  0
    6.6612   -2.6326   15.3771 Cl  0  0  0  0  0  0  0  0  0  0  0  0
  1  2  1  0
  2  3  1  0
  3  4  1  0
  4  5  1  0
  5  6  1  0
  6  7  1  0
  7  8  1  0
  8  9  1  0
  9 10  2  0
  9 11  1  0
 11 12  1  0
 12 13  2  0
 13 14  1  0
 14 15  2  0
 15 16  1  0
 15 17  1  0
 12 18  1  0
 18 19  1  0
 19 20  2  0
 20 21  1  0
 21 22  2  0
  5 23  1  0
 23 24  2  0
 24 25  1  0
 25 26  2  0
 26 27  1  0
 26 28  1  0
 28 29  2  0
 29 30  1  0
 30 31  2  0
 30 32  1  0
  8  2  1  0
 16 11  2  0
 22 18  1  0
 27 23  1  0
 31 25  1  0
M  END
$$$$
