
     RDKit          3D

 32 36  0  0  0  0  0  0  0  0999 V2000
   -1.7338    0.5870    7.5268 C   0  0  0  0  0  0  0  0  0  0  0  0
   -0.4102    0.7359    8.1967 C   0  0  0  0  0  0  0  0  0  0  0  0
   -0.4990    0.2092    9.5854 C   0  0  0  0  0  0  0  0  0  0  0  0
    0.8408   -0.4443    9.9109 C   0  0  0  0  0  0  0  0  0  0  0  0
    1.7064    0.6174   10.4277 N   0  0  0  0  0  0  0  0  0  0  0  0
    1.7786    1.9952   10.0378 C   0  0  0  0  0  0  0  0  0  0  0  0
    1.5567    2.3092    8.6141 C   0  0  0  0  0  0  0  0  0  0  0  0
    0.2317    2.0110    8.0926 N   0  0  0  0  0  0  0  0  0  0  0  0
   -0.4275    3.0590    7.3887 C   0  0  0  0  0  0  0  0  0  0  0  0
   -0.3686    3.0871    6.1396 O   0  0  0  0  0  0  0  0  0  0  0  0
   -1.1577    4.0909    8.0776 C   0  0  0  0  0  0  0  0  0  0  0  0
   -0.5475    4.8519    9.0413 C   0  0  0  0  0  0  0  0  0  0  0  0
   -1.2826    5.8156    9.6866 C   0  0  0  0  0  0  0  0  0  0  0  0
   -2.6178    6.0379    9.3917 C   0  0  0  0  0  0  0  0  0  0  0  0
   -3.2623    5.2789    8.4179 C   0  0  0  0  0  0  0  0  0  0  0  0
   -2.5155    4.3182    7.7789 C   0  0  0  0  0  0  0  0  0  0  0  0
   -4.7027    5.5394    8.1238 C   0  0  0  0  0  0  0  0  0  0  0  0
    0.8191    4.6610    9.4031 N   0  0  0  0  0  0  0  0  0  0  0  0
    1.2546    3.8825   10.4086 N   0  0  0  0  0  0  0  0  0  0  0  0
    2.5879    3.9143   10.4970 C   0  0  0  0  0  0  0  0  0  0  0  0
    3.0182    4.7567    9.4969 C   0  0  0  0  0  0  0  0  0  0  0  0
    1.9002    5.1676    8.8800 N   0  0  0  0  0  0  0  0  0  0  0  0
    2.5692    0.2126   11.4742 C   0  0  0  0  0  0  0  0  0  0  0  0
    2.3091   -0.3118   12.6857 N   0  0  0  0  0  0  0  0  0  0  0  0
    3.4648   -0.5348   13.3289 C   0  0  0  0  0  0  0  0  0  0  0  0
    4.4645   -0.1290   12.4707 C   0  0  0  0  0  0  0  0  0  0  0  0
    3.8982    0.3059   11.3883 O   0  0  0  0  0  0  0  0  0  0  0  0
    5.7899   -0.2275   12.8321 C   0  0  0  0  0  0  0  0  0  0  0  0
    6.1702   -0.7374   14.0705 C   0  0  0  0  0  0  0  0  0  0  0  0
    5.1521   -1.1436   14.9294 C   0  0  0  0  0  0  0  0  0  0  0  0
    3.8271   -1.0455   14.5692 C   0  0  0  0  0  0  0  0  0  0  0  0
    5.6073   -1.7960   16.5079 Cl  0  0  0  0  0  0  0  0  0  0  0  0
  1  2  1  0
  2  3  1  0
  3  4  1  0
  4  5  1  0
  5  6  1  0
  6  7  1  0
  7  8  1  0
  8  9  1  0
  9 10  2  0
  9 11  1  0
 11 12  1  0
 12 13  2  0
 13 14  1  0
 14 15  2  0
 15 16  1  0
 15 17  1  0
 12 18  1  0
 18 19  1  0
 19 20  2  0
 20 21  1  0
 21 22  2  0
  5 23  1  0
 23 24  2  0
 24 25  1  0
 25 26  2  0
 26 27  1  0
 26 28  1  0
 28 29  2  0
 29 30  1  0
 30 31  2  0
 30 32  1  0
  8  2  1  0
 16 11  2  0
 22 18  1  0
 27 23  1  0
 31 25  1  0
M  END
$$$$
