
     RDKit          3D

 32 36  0  0  0  0  0  0  0  0999 V2000
    1.4188    4.9459    9.1539 C   0  0  0  0  0  0  0  0  0  0  0  0
    1.5969    3.9139   10.2151 C   0  0  0  0  0  0  0  0  0  0  0  0
    2.7612    3.0526    9.8740 C   0  0  0  0  0  0  0  0  0  0  0  0
    3.4525    2.6824   11.1829 C   0  0  0  0  0  0  0  0  0  0  0  0
    2.7805    1.4814   11.6826 N   0  0  0  0  0  0  0  0  0  0  0  0
    1.3955    1.1201   11.6009 C   0  0  0  0  0  0  0  0  0  0  0  0
    0.4045    2.2082   11.6939 C   0  0  0  0  0  0  0  0  0  0  0  0
    0.4306    3.1903   10.6209 N   0  0  0  0  0  0  0  0  0  0  0  0
   -0.8115    3.4715    9.9833 C   0  0  0  0  0  0  0  0  0  0  0  0
   -1.4821    4.4577   10.3605 O   0  0  0  0  0  0  0  0  0  0  0  0
   -1.3187    2.6475    8.9173 C   0  0  0  0  0  0  0  0  0  0  0  0
   -1.6240    3.1950    7.6978 C   0  0  0  0  0  0  0  0  0  0  0  0
   -2.1205    2.3783    6.7120 C   0  0  0  0  0  0  0  0  0  0  0  0
   -2.3207    1.0227    6.9159 C   0  0  0  0  0  0  0  0  0  0  0  0
   -2.0198    0.4410    8.1450 C   0  0  0  0  0  0  0  0  0  0  0  0
   -1.5229    1.2689    9.1231 C   0  0  0  0  0  0  0  0  0  0  0  0
   -2.2488   -1.0219    8.3361 C   0  0  0  0  0  0  0  0  0  0  0  0
   -1.4569    4.5862    7.4300 N   0  0  0  0  0  0  0  0  0  0  0  0
   -0.6565    5.1036    6.4821 N   0  0  0  0  0  0  0  0  0  0  0  0
   -0.7147    6.4389    6.4818 C   0  0  0  0  0  0  0  0  0  0  0  0
   -1.5963    6.7843    7.4811 C   0  0  0  0  0  0  0  0  0  0  0  0
   -2.0030    5.6194    8.0072 N   0  0  0  0  0  0  0  0  0  0  0  0
    3.6393    0.5478   12.3105 C   0  0  0  0  0  0  0  0  0  0  0  0
    3.7124    0.1285   13.5869 N   0  0  0  0  0  0  0  0  0  0  0  0
    4.6969   -0.7754   13.7002 C   0  0  0  0  0  0  0  0  0  0  0  0
    5.2408   -0.9082   12.4404 C   0  0  0  0  0  0  0  0  0  0  0  0
    4.5922   -0.1125   11.6483 O   0  0  0  0  0  0  0  0  0  0  0  0
    6.2870   -1.7739   12.2096 C   0  0  0  0  0  0  0  0  0  0  0  0
    6.8332   -2.5440   13.2327 C   0  0  0  0  0  0  0  0  0  0  0  0
    6.2763   -2.4013   14.5011 C   0  0  0  0  0  0  0  0  0  0  0  0
    5.2307   -1.5364   14.7329 C   0  0  0  0  0  0  0  0  0  0  0  0
    6.9502   -3.3684   15.8182 Cl  0  0  0  0  0  0  0  0  0  0  0  0
  1  2  1  0
  2  3  1  0
  3  4  1  0
  4  5  1  0
  5  6  1  0
  6  7  1  0
  7  8  1  0
  8  9  1  0
  9 10  2  0
  9 11  1  0
 11 12  1  0
 12 13  2  0
 13 14  1  0
 14 15  2  0
 15 16  1  0
 15 17  1  0
 12 18  1  0
 18 19  1  0
 19 20  2  0
 20 21  1  0
 21 22  2  0
  5 23  1  0
 23 24  2  0
 24 25  1  0
 25 26  2  0
 26 27  1  0
 26 28  1  0
 28 29  2  0
 29 30  1  0
 30 31  2  0
 30 32  1  0
  8  2  1  0
 16 11  2  0
 22 18  1  0
 27 23  1  0
 31 25  1  0
M  END
$$$$
