
     RDKit          3D

 32 36  0  0  0  0  0  0  0  0999 V2000
    1.3489    5.3918    8.5810 C   0  0  0  0  0  0  0  0  0  0  0  0
    1.5619    4.5046    9.7602 C   0  0  0  0  0  0  0  0  0  0  0  0
    2.6163    3.5048    9.4402 C   0  0  0  0  0  0  0  0  0  0  0  0
    3.4135    3.2593   10.7179 C   0  0  0  0  0  0  0  0  0  0  0  0
    2.7114    2.2031   11.4494 N   0  0  0  0  0  0  0  0  0  0  0  0
    1.3026    1.9580   11.5529 C   0  0  0  0  0  0  0  0  0  0  0  0
    0.4105    3.1320   11.5790 C   0  0  0  0  0  0  0  0  0  0  0  0
    0.3950    3.9502   10.3761 N   0  0  0  0  0  0  0  0  0  0  0  0
   -0.8836    4.2493    9.8247 C   0  0  0  0  0  0  0  0  0  0  0  0
   -1.6120    5.0922   10.3936 O   0  0  0  0  0  0  0  0  0  0  0  0
   -1.3627    3.6037    8.6305 C   0  0  0  0  0  0  0  0  0  0  0  0
   -1.5264    2.2429    8.5915 C   0  0  0  0  0  0  0  0  0  0  0  0
   -1.9705    1.6634    7.4285 C   0  0  0  0  0  0  0  0  0  0  0  0
   -2.2554    2.4133    6.2991 C   0  0  0  0  0  0  0  0  0  0  0  0
   -2.0972    3.7970    6.3111 C   0  0  0  0  0  0  0  0  0  0  0  0
   -1.6529    4.3649    7.4812 C   0  0  0  0  0  0  0  0  0  0  0  0
   -2.4095    4.5784    5.0778 C   0  0  0  0  0  0  0  0  0  0  0  0
   -1.2342    1.4133    9.7145 N   0  0  0  0  0  0  0  0  0  0  0  0
   -2.0870    1.1319   10.7147 N   0  0  0  0  0  0  0  0  0  0  0  0
   -1.5170    0.3304   11.6198 C   0  0  0  0  0  0  0  0  0  0  0  0
   -0.2378    0.0931   11.1700 C   0  0  0  0  0  0  0  0  0  0  0  0
   -0.1390    0.7756   10.0194 N   0  0  0  0  0  0  0  0  0  0  0  0
    3.5606    1.2930   12.1230 C   0  0  0  0  0  0  0  0  0  0  0  0
    4.5039    0.4519   11.6615 N   0  0  0  0  0  0  0  0  0  0  0  0
    5.0474   -0.2124   12.6923 C   0  0  0  0  0  0  0  0  0  0  0  0
    4.4065    0.2465   13.8234 C   0  0  0  0  0  0  0  0  0  0  0  0
    3.5368    1.1321   13.4482 O   0  0  0  0  0  0  0  0  0  0  0  0
    4.7361   -0.2396   15.0693 C   0  0  0  0  0  0  0  0  0  0  0  0
    5.7230   -1.2075   15.2346 C   0  0  0  0  0  0  0  0  0  0  0  0
    6.3632   -1.6641   14.0853 C   0  0  0  0  0  0  0  0  0  0  0  0
    6.0346   -1.1789   12.8396 C   0  0  0  0  0  0  0  0  0  0  0  0
    7.6213   -2.8923   14.2670 Cl  0  0  0  0  0  0  0  0  0  0  0  0
  1  2  1  0
  2  3  1  0
  3  4  1  0
  4  5  1  0
  5  6  1  0
  6  7  1  0
  7  8  1  0
  8  9  1  0
  9 10  2  0
  9 11  1  0
 11 12  1  0
 12 13  2  0
 13 14  1  0
 14 15  2  0
 15 16  1  0
 15 17  1  0
 12 18  1  0
 18 19  1  0
 19 20  2  0
 20 21  1  0
 21 22  2  0
  5 23  1  0
 23 24  2  0
 24 25  1  0
 25 26  2  0
 26 27  1  0
 26 28  1  0
 28 29  2  0
 29 30  1  0
 30 31  2  0
 30 32  1  0
  8  2  1  0
 16 11  2  0
 22 18  1  0
 27 23  1  0
 31 25  1  0
M  END
$$$$
