
     RDKit          3D

 32 36  0  0  0  0  0  0  0  0999 V2000
    0.4859    3.4026    7.5479 C   0  0  0  0  0  0  0  0  0  0  0  0
    1.0655    3.0772    8.8825 C   0  0  0  0  0  0  0  0  0  0  0  0
    1.6975    1.7312    8.8300 C   0  0  0  0  0  0  0  0  0  0  0  0
    2.9343    1.7740    9.7227 C   0  0  0  0  0  0  0  0  0  0  0  0
    2.4813    1.4479   11.0762 N   0  0  0  0  0  0  0  0  0  0  0  0
    1.2491    1.7902   11.7244 C   0  0  0  0  0  0  0  0  0  0  0  0
    0.6552    3.1010   11.4022 C   0  0  0  0  0  0  0  0  0  0  0  0
    0.2284    3.2883   10.0241 N   0  0  0  0  0  0  0  0  0  0  0  0
   -1.0989    3.7655    9.8266 C   0  0  0  0  0  0  0  0  0  0  0  0
   -1.7398    4.2100   10.8045 O   0  0  0  0  0  0  0  0  0  0  0  0
   -1.7252    3.7462    8.5305 C   0  0  0  0  0  0  0  0  0  0  0  0
   -1.9687    2.5577    7.8916 C   0  0  0  0  0  0  0  0  0  0  0  0
   -2.5534    2.5825    6.6495 C   0  0  0  0  0  0  0  0  0  0  0  0
   -2.9015    3.7704    6.0275 C   0  0  0  0  0  0  0  0  0  0  0  0
   -2.6647    4.9917    6.6537 C   0  0  0  0  0  0  0  0  0  0  0  0
   -2.0797    4.9534    7.8968 C   0  0  0  0  0  0  0  0  0  0  0  0
   -3.0480    6.2557    5.9575 C   0  0  0  0  0  0  0  0  0  0  0  0
   -1.6186    1.3019    8.4706 N   0  0  0  0  0  0  0  0  0  0  0  0
   -1.3537    1.0939    9.7719 N   0  0  0  0  0  0  0  0  0  0  0  0
   -1.0544   -0.1884   10.0014 C   0  0  0  0  0  0  0  0  0  0  0  0
   -1.1330   -0.8243    8.7830 C   0  0  0  0  0  0  0  0  0  0  0  0
   -1.4774    0.1338    7.9096 N   0  0  0  0  0  0  0  0  0  0  0  0
    3.3913    0.6649   11.8259 C   0  0  0  0  0  0  0  0  0  0  0  0
    4.0932    0.9431   12.9396 N   0  0  0  0  0  0  0  0  0  0  0  0
    4.8264   -0.1273   13.2798 C   0  0  0  0  0  0  0  0  0  0  0  0
    4.5563   -1.0923   12.3330 C   0  0  0  0  0  0  0  0  0  0  0  0
    3.7070   -0.5888   11.4924 O   0  0  0  0  0  0  0  0  0  0  0  0
    5.1558   -2.3308   12.3947 C   0  0  0  0  0  0  0  0  0  0  0  0
    6.0525   -2.6552   13.4090 C   0  0  0  0  0  0  0  0  0  0  0  0
    6.3182   -1.6726   14.3594 C   0  0  0  0  0  0  0  0  0  0  0  0
    5.7196   -0.4345   14.2987 C   0  0  0  0  0  0  0  0  0  0  0  0
    7.4524   -2.0587   15.6590 Cl  0  0  0  0  0  0  0  0  0  0  0  0
  1  2  1  0
  2  3  1  0
  3  4  1  0
  4  5  1  0
  5  6  1  0
  6  7  1  0
  7  8  1  0
  8  9  1  0
  9 10  2  0
  9 11  1  0
 11 12  1  0
 12 13  2  0
 13 14  1  0
 14 15  2  0
 15 16  1  0
 15 17  1  0
 12 18  1  0
 18 19  1  0
 19 20  2  0
 20 21  1  0
 21 22  2  0
  5 23  1  0
 23 24  2  0
 24 25  1  0
 25 26  2  0
 26 27  1  0
 26 28  1  0
 28 29  2  0
 29 30  1  0
 30 31  2  0
 30 32  1  0
  8  2  1  0
 16 11  2  0
 22 18  1  0
 27 23  1  0
 31 25  1  0
M  END
$$$$
