
     RDKit          3D

 32 36  0  0  0  0  0  0  0  0999 V2000
    1.7815    5.3954    8.7137 C   0  0  0  0  0  0  0  0  0  0  0  0
    1.7609    4.2128    9.6214 C   0  0  0  0  0  0  0  0  0  0  0  0
    3.1254    3.6240    9.6942 C   0  0  0  0  0  0  0  0  0  0  0  0
    3.3245    3.1113   11.1175 C   0  0  0  0  0  0  0  0  0  0  0  0
    2.7941    1.7470   11.1458 N   0  0  0  0  0  0  0  0  0  0  0  0
    1.6627    1.2022   10.4539 C   0  0  0  0  0  0  0  0  0  0  0  0
    0.4990    2.0863   10.2565 C   0  0  0  0  0  0  0  0  0  0  0  0
    0.7182    3.2539    9.4168 N   0  0  0  0  0  0  0  0  0  0  0  0
   -0.2130    3.4634    8.3597 C   0  0  0  0  0  0  0  0  0  0  0  0
   -0.1968    4.5484    7.7376 O   0  0  0  0  0  0  0  0  0  0  0  0
   -1.1767    2.4598    7.9901 C   0  0  0  0  0  0  0  0  0  0  0  0
   -2.4760    2.8063    7.7217 C   0  0  0  0  0  0  0  0  0  0  0  0
   -3.3685    1.8176    7.3880 C   0  0  0  0  0  0  0  0  0  0  0  0
   -2.9932    0.4861    7.3163 C   0  0  0  0  0  0  0  0  0  0  0  0
   -1.6804    0.1065    7.5847 C   0  0  0  0  0  0  0  0  0  0  0  0
   -0.7966    1.1053    7.9167 C   0  0  0  0  0  0  0  0  0  0  0  0
   -1.3061   -1.3366    7.5022 C   0  0  0  0  0  0  0  0  0  0  0  0
   -2.9293    4.1569    7.7949 N   0  0  0  0  0  0  0  0  0  0  0  0
   -3.0066    4.8900    8.9189 N   0  0  0  0  0  0  0  0  0  0  0  0
   -3.4725    6.1159    8.6608 C   0  0  0  0  0  0  0  0  0  0  0  0
   -3.7027    6.1607    7.3043 C   0  0  0  0  0  0  0  0  0  0  0  0
   -3.3530    4.9481    6.8496 N   0  0  0  0  0  0  0  0  0  0  0  0
    3.5287    0.8495   11.9571 C   0  0  0  0  0  0  0  0  0  0  0  0
    4.1814    1.0349   13.1190 N   0  0  0  0  0  0  0  0  0  0  0  0
    4.7300   -0.1254   13.5085 C   0  0  0  0  0  0  0  0  0  0  0  0
    4.3947   -1.0502   12.5427 C   0  0  0  0  0  0  0  0  0  0  0  0
    3.6872   -0.4387   11.6444 O   0  0  0  0  0  0  0  0  0  0  0  0
    4.8075   -2.3603   12.6446 C   0  0  0  0  0  0  0  0  0  0  0  0
    5.5747   -2.7997   13.7199 C   0  0  0  0  0  0  0  0  0  0  0  0
    5.9080   -1.8569   14.6891 C   0  0  0  0  0  0  0  0  0  0  0  0
    5.4960   -0.5472   14.5883 C   0  0  0  0  0  0  0  0  0  0  0  0
    6.8806   -2.3885   16.0660 Cl  0  0  0  0  0  0  0  0  0  0  0  0
  1  2  1  0
  2  3  1  0
  3  4  1  0
  4  5  1  0
  5  6  1  0
  6  7  1  0
  7  8  1  0
  8  9  1  0
  9 10  2  0
  9 11  1  0
 11 12  1  0
 12 13  2  0
 13 14  1  0
 14 15  2  0
 15 16  1  0
 15 17  1  0
 12 18  1  0
 18 19  1  0
 19 20  2  0
 20 21  1  0
 21 22  2  0
  5 23  1  0
 23 24  2  0
 24 25  1  0
 25 26  2  0
 26 27  1  0
 26 28  1  0
 28 29  2  0
 29 30  1  0
 30 31  2  0
 30 32  1  0
  8  2  1  0
 16 11  2  0
 22 18  1  0
 27 23  1  0
 31 25  1  0
M  END
$$$$
