
     RDKit          3D

 32 36  0  0  0  0  0  0  0  0999 V2000
    2.3360    5.8681    9.7644 C   0  0  0  0  0  0  0  0  0  0  0  0
    2.1412    4.4656   10.2313 C   0  0  0  0  0  0  0  0  0  0  0  0
    3.4593    3.8813   10.5989 C   0  0  0  0  0  0  0  0  0  0  0  0
    3.2315    2.9603   11.7939 C   0  0  0  0  0  0  0  0  0  0  0  0
    2.8662    1.6523   11.2467 N   0  0  0  0  0  0  0  0  0  0  0  0
    2.0883    1.3445   10.0824 C   0  0  0  0  0  0  0  0  0  0  0  0
    0.9690    2.2478    9.7569 C   0  0  0  0  0  0  0  0  0  0  0  0
    1.3294    3.6152    9.4150 N   0  0  0  0  0  0  0  0  0  0  0  0
    0.7812    4.1367    8.2085 C   0  0  0  0  0  0  0  0  0  0  0  0
    1.5172    4.7878    7.4346 O   0  0  0  0  0  0  0  0  0  0  0  0
   -0.6007    3.9379    7.8570 C   0  0  0  0  0  0  0  0  0  0  0  0
   -1.5656    4.8021    8.3066 C   0  0  0  0  0  0  0  0  0  0  0  0
   -2.8743    4.5689    7.9624 C   0  0  0  0  0  0  0  0  0  0  0  0
   -3.2438    3.4890    7.1774 C   0  0  0  0  0  0  0  0  0  0  0  0
   -2.2841    2.5955    6.7080 C   0  0  0  0  0  0  0  0  0  0  0  0
   -0.9780    2.8402    7.0588 C   0  0  0  0  0  0  0  0  0  0  0  0
   -2.7127    1.4391    5.8663 C   0  0  0  0  0  0  0  0  0  0  0  0
   -1.2525    5.9226    9.1321 N   0  0  0  0  0  0  0  0  0  0  0  0
   -0.7863    7.1043    8.6929 N   0  0  0  0  0  0  0  0  0  0  0  0
   -0.5872    7.9491    9.7093 C   0  0  0  0  0  0  0  0  0  0  0  0
   -0.9449    7.2669   10.8503 C   0  0  0  0  0  0  0  0  0  0  0  0
   -1.3353    6.0557   10.4262 N   0  0  0  0  0  0  0  0  0  0  0  0
    3.3823    0.5501   11.9692 C   0  0  0  0  0  0  0  0  0  0  0  0
    2.8471   -0.6500   12.2587 N   0  0  0  0  0  0  0  0  0  0  0  0
    3.7274   -1.3666   12.9734 C   0  0  0  0  0  0  0  0  0  0  0  0
    4.8406   -0.5669   13.1214 C   0  0  0  0  0  0  0  0  0  0  0  0
    4.5998    0.5547   12.5170 O   0  0  0  0  0  0  0  0  0  0  0  0
    5.9442   -1.0126   13.8147 C   0  0  0  0  0  0  0  0  0  0  0  0
    5.9790   -2.2800   14.3897 C   0  0  0  0  0  0  0  0  0  0  0  0
    4.8489   -3.0787   14.2343 C   0  0  0  0  0  0  0  0  0  0  0  0
    3.7454   -2.6343   13.5416 C   0  0  0  0  0  0  0  0  0  0  0  0
    4.8670   -4.6932   14.9536 Cl  0  0  0  0  0  0  0  0  0  0  0  0
  1  2  1  0
  2  3  1  0
  3  4  1  0
  4  5  1  0
  5  6  1  0
  6  7  1  0
  7  8  1  0
  8  9  1  0
  9 10  2  0
  9 11  1  0
 11 12  1  0
 12 13  2  0
 13 14  1  0
 14 15  2  0
 15 16  1  0
 15 17  1  0
 12 18  1  0
 18 19  1  0
 19 20  2  0
 20 21  1  0
 21 22  2  0
  5 23  1  0
 23 24  2  0
 24 25  1  0
 25 26  2  0
 26 27  1  0
 26 28  1  0
 28 29  2  0
 29 30  1  0
 30 31  2  0
 30 32  1  0
  8  2  1  0
 16 11  2  0
 22 18  1  0
 27 23  1  0
 31 25  1  0
M  END
$$$$
