
     RDKit          3D

 32 36  0  0  0  0  0  0  0  0999 V2000
   -1.1543    3.4701   10.4407 C   0  0  0  0  0  0  0  0  0  0  0  0
    0.1110    2.6823   10.4045 C   0  0  0  0  0  0  0  0  0  0  0  0
    0.5889    2.4540   11.7950 C   0  0  0  0  0  0  0  0  0  0  0  0
    1.2235    1.0669   11.8361 C   0  0  0  0  0  0  0  0  0  0  0  0
    2.6231    1.2384   11.4419 N   0  0  0  0  0  0  0  0  0  0  0  0
    3.1876    2.1393   10.4800 C   0  0  0  0  0  0  0  0  0  0  0  0
    2.3879    2.4341    9.2766 C   0  0  0  0  0  0  0  0  0  0  0  0
    1.1277    3.1259    9.5000 N   0  0  0  0  0  0  0  0  0  0  0  0
    0.8912    4.2902    8.7147 C   0  0  0  0  0  0  0  0  0  0  0  0
    1.7849    5.1612    8.6295 O   0  0  0  0  0  0  0  0  0  0  0  0
   -0.3523    4.4940    8.0185 C   0  0  0  0  0  0  0  0  0  0  0  0
   -1.1635    5.5530    8.3358 C   0  0  0  0  0  0  0  0  0  0  0  0
   -2.3490    5.7036    7.6596 C   0  0  0  0  0  0  0  0  0  0  0  0
   -2.7455    4.8182    6.6707 C   0  0  0  0  0  0  0  0  0  0  0  0
   -1.9412    3.7338    6.3291 C   0  0  0  0  0  0  0  0  0  0  0  0
   -0.7570    3.5945    7.0127 C   0  0  0  0  0  0  0  0  0  0  0  0
   -2.3963    2.7947    5.2613 C   0  0  0  0  0  0  0  0  0  0  0  0
   -0.8205    6.4897    9.3556 N   0  0  0  0  0  0  0  0  0  0  0  0
   -1.5581    6.7527   10.4481 N   0  0  0  0  0  0  0  0  0  0  0  0
   -0.9712    7.6800   11.2111 C   0  0  0  0  0  0  0  0  0  0  0  0
    0.1970    8.0220   10.5682 C   0  0  0  0  0  0  0  0  0  0  0  0
    0.2213    7.2661    9.4604 N   0  0  0  0  0  0  0  0  0  0  0  0
    3.5334    0.4058   12.1357 C   0  0  0  0  0  0  0  0  0  0  0  0
    3.6305    0.0908   13.4402 N   0  0  0  0  0  0  0  0  0  0  0  0
    4.6645   -0.7449   13.6180 C   0  0  0  0  0  0  0  0  0  0  0  0
    5.2146   -0.9436   12.3697 C   0  0  0  0  0  0  0  0  0  0  0  0
    4.5217   -0.2489   11.5218 O   0  0  0  0  0  0  0  0  0  0  0  0
    6.3078   -1.7643   12.2011 C   0  0  0  0  0  0  0  0  0  0  0  0
    6.8969   -2.4214   13.2779 C   0  0  0  0  0  0  0  0  0  0  0  0
    6.3333   -2.2129   14.5341 C   0  0  0  0  0  0  0  0  0  0  0  0
    5.2407   -1.3929   14.7037 C   0  0  0  0  0  0  0  0  0  0  0  0
    7.0612   -3.0363   15.9185 Cl  0  0  0  0  0  0  0  0  0  0  0  0
  1  2  1  0
  2  3  1  0
  3  4  1  0
  4  5  1  0
  5  6  1  0
  6  7  1  0
  7  8  1  0
  8  9  1  0
  9 10  2  0
  9 11  1  0
 11 12  1  0
 12 13  2  0
 13 14  1  0
 14 15  2  0
 15 16  1  0
 15 17  1  0
 12 18  1  0
 18 19  1  0
 19 20  2  0
 20 21  1  0
 21 22  2  0
  5 23  1  0
 23 24  2  0
 24 25  1  0
 25 26  2  0
 26 27  1  0
 26 28  1  0
 28 29  2  0
 29 30  1  0
 30 31  2  0
 30 32  1  0
  8  2  1  0
 16 11  2  0
 22 18  1  0
 27 23  1  0
 31 25  1  0
M  END
$$$$
