
     RDKit          3D

 32 36  0  0  0  0  0  0  0  0999 V2000
    1.0559    4.2999    8.6376 C   0  0  0  0  0  0  0  0  0  0  0  0
    1.3154    3.4401    9.8277 C   0  0  0  0  0  0  0  0  0  0  0  0
    2.4920    2.5698    9.5595 C   0  0  0  0  0  0  0  0  0  0  0  0
    3.2524    2.4148   10.8732 C   0  0  0  0  0  0  0  0  0  0  0  0
    2.6441    1.2826   11.5744 N   0  0  0  0  0  0  0  0  0  0  0  0
    1.2699    0.8759   11.6134 C   0  0  0  0  0  0  0  0  0  0  0  0
    0.2478    1.9387   11.5951 C   0  0  0  0  0  0  0  0  0  0  0  0
    0.1932    2.7528   10.3906 N   0  0  0  0  0  0  0  0  0  0  0  0
   -1.0845    2.9036    9.7799 C   0  0  0  0  0  0  0  0  0  0  0  0
   -1.8198    3.8535   10.1286 O   0  0  0  0  0  0  0  0  0  0  0  0
   -1.5551    1.9882    8.7733 C   0  0  0  0  0  0  0  0  0  0  0  0
   -1.8734    2.4366    7.5173 C   0  0  0  0  0  0  0  0  0  0  0  0
   -2.3339    1.5345    6.5901 C   0  0  0  0  0  0  0  0  0  0  0  0
   -2.4853    0.1903    6.8888 C   0  0  0  0  0  0  0  0  0  0  0  0
   -2.1702   -0.2917    8.1568 C   0  0  0  0  0  0  0  0  0  0  0  0
   -1.7096    0.6209    9.0755 C   0  0  0  0  0  0  0  0  0  0  0  0
   -2.3464   -1.7451    8.4502 C   0  0  0  0  0  0  0  0  0  0  0  0
   -1.7560    3.8106    7.1522 N   0  0  0  0  0  0  0  0  0  0  0  0
   -1.0057    4.2843    6.1425 N   0  0  0  0  0  0  0  0  0  0  0  0
   -1.1021    5.6146    6.0565 C   0  0  0  0  0  0  0  0  0  0  0  0
   -1.9563    6.0029    7.0638 C   0  0  0  0  0  0  0  0  0  0  0  0
   -2.3101    4.8655    7.6806 N   0  0  0  0  0  0  0  0  0  0  0  0
    3.5609    0.4750   12.2890 C   0  0  0  0  0  0  0  0  0  0  0  0
    3.3810   -0.6486   13.0071 N   0  0  0  0  0  0  0  0  0  0  0  0
    4.5613   -1.0528   13.4996 C   0  0  0  0  0  0  0  0  0  0  0  0
    5.4929   -0.1362   13.0608 C   0  0  0  0  0  0  0  0  0  0  0  0
    4.8659    0.7495   12.3510 O   0  0  0  0  0  0  0  0  0  0  0  0
    6.8230   -0.2647   13.3947 C   0  0  0  0  0  0  0  0  0  0  0  0
    7.2765   -1.3184   14.1834 C   0  0  0  0  0  0  0  0  0  0  0  0
    6.3267   -2.2379   14.6214 C   0  0  0  0  0  0  0  0  0  0  0  0
    4.9971   -2.1104   14.2884 C   0  0  0  0  0  0  0  0  0  0  0  0
    6.8759   -3.5864   15.6235 Cl  0  0  0  0  0  0  0  0  0  0  0  0
  1  2  1  0
  2  3  1  0
  3  4  1  0
  4  5  1  0
  5  6  1  0
  6  7  1  0
  7  8  1  0
  8  9  1  0
  9 10  2  0
  9 11  1  0
 11 12  1  0
 12 13  2  0
 13 14  1  0
 14 15  2  0
 15 16  1  0
 15 17  1  0
 12 18  1  0
 18 19  1  0
 19 20  2  0
 20 21  1  0
 21 22  2  0
  5 23  1  0
 23 24  2  0
 24 25  1  0
 25 26  2  0
 26 27  1  0
 26 28  1  0
 28 29  2  0
 29 30  1  0
 30 31  2  0
 30 32  1  0
  8  2  1  0
 16 11  2  0
 22 18  1  0
 27 23  1  0
 31 25  1  0
M  END
$$$$
