
     RDKit          3D

 32 36  0  0  0  0  0  0  0  0999 V2000
    2.3884    4.9639    8.3413 C   0  0  0  0  0  0  0  0  0  0  0  0
    2.2372    3.9301    9.4049 C   0  0  0  0  0  0  0  0  0  0  0  0
    3.5456    3.2574    9.6274 C   0  0  0  0  0  0  0  0  0  0  0  0
    3.6481    2.9427   11.1169 C   0  0  0  0  0  0  0  0  0  0  0  0
    3.0078    1.6405   11.3116 N   0  0  0  0  0  0  0  0  0  0  0  0
    1.8630    1.0877   10.6487 C   0  0  0  0  0  0  0  0  0  0  0  0
    0.7834    2.0186   10.2712 C   0  0  0  0  0  0  0  0  0  0  0  0
    1.1285    3.0326    9.2867 N   0  0  0  0  0  0  0  0  0  0  0  0
    0.2584    3.1560    8.1661 C   0  0  0  0  0  0  0  0  0  0  0  0
    0.3334    4.1745    7.4438 O   0  0  0  0  0  0  0  0  0  0  0  0
   -0.7097    2.1403    7.8440 C   0  0  0  0  0  0  0  0  0  0  0  0
   -2.0437    2.4479    7.7675 C   0  0  0  0  0  0  0  0  0  0  0  0
   -2.9371    1.4476    7.4733 C   0  0  0  0  0  0  0  0  0  0  0  0
   -2.5286    0.1423    7.2533 C   0  0  0  0  0  0  0  0  0  0  0  0
   -1.1799   -0.1977    7.3255 C   0  0  0  0  0  0  0  0  0  0  0  0
   -0.2958    0.8125    7.6200 C   0  0  0  0  0  0  0  0  0  0  0  0
   -0.7699   -1.6134    7.0865 C   0  0  0  0  0  0  0  0  0  0  0  0
   -2.5301    3.7687    8.0002 N   0  0  0  0  0  0  0  0  0  0  0  0
   -2.9338    4.6264    7.0473 N   0  0  0  0  0  0  0  0  0  0  0  0
   -3.3304    5.7854    7.5820 C   0  0  0  0  0  0  0  0  0  0  0  0
   -3.1685    5.6549    8.9428 C   0  0  0  0  0  0  0  0  0  0  0  0
   -2.6842    4.4166    9.1206 N   0  0  0  0  0  0  0  0  0  0  0  0
    3.6356    0.8174   12.2768 C   0  0  0  0  0  0  0  0  0  0  0  0
    3.1258   -0.0552   13.1652 N   0  0  0  0  0  0  0  0  0  0  0  0
    4.1260   -0.6028   13.8716 C   0  0  0  0  0  0  0  0  0  0  0  0
    5.2879   -0.0384   13.3901 C   0  0  0  0  0  0  0  0  0  0  0  0
    4.9590    0.7939   12.4518 O   0  0  0  0  0  0  0  0  0  0  0  0
    6.5137   -0.3921   13.9091 C   0  0  0  0  0  0  0  0  0  0  0  0
    6.6272   -1.3276   14.9339 C   0  0  0  0  0  0  0  0  0  0  0  0
    5.4470   -1.8907   15.4128 C   0  0  0  0  0  0  0  0  0  0  0  0
    4.2214   -1.5378   14.8949 C   0  0  0  0  0  0  0  0  0  0  0  0
    5.5627   -3.0823   16.7132 Cl  0  0  0  0  0  0  0  0  0  0  0  0
  1  2  1  0
  2  3  1  0
  3  4  1  0
  4  5  1  0
  5  6  1  0
  6  7  1  0
  7  8  1  0
  8  9  1  0
  9 10  2  0
  9 11  1  0
 11 12  1  0
 12 13  2  0
 13 14  1  0
 14 15  2  0
 15 16  1  0
 15 17  1  0
 12 18  1  0
 18 19  1  0
 19 20  2  0
 20 21  1  0
 21 22  2  0
  5 23  1  0
 23 24  2  0
 24 25  1  0
 25 26  2  0
 26 27  1  0
 26 28  1  0
 28 29  2  0
 29 30  1  0
 30 31  2  0
 30 32  1  0
  8  2  1  0
 16 11  2  0
 22 18  1  0
 27 23  1  0
 31 25  1  0
M  END
$$$$
