
     RDKit          3D

 32 36  0  0  0  0  0  0  0  0999 V2000
    2.2327    5.1765    8.6730 C   0  0  0  0  0  0  0  0  0  0  0  0
    2.1385    4.1031    9.7035 C   0  0  0  0  0  0  0  0  0  0  0  0
    3.4433    3.3942    9.7969 C   0  0  0  0  0  0  0  0  0  0  0  0
    3.6522    3.0162   11.2604 C   0  0  0  0  0  0  0  0  0  0  0  0
    2.9972    1.7210   11.4527 N   0  0  0  0  0  0  0  0  0  0  0  0
    1.7918    1.2204   10.8595 C   0  0  0  0  0  0  0  0  0  0  0  0
    0.7093    2.1888   10.6040 C   0  0  0  0  0  0  0  0  0  0  0  0
    1.0025    3.2350    9.6365 N   0  0  0  0  0  0  0  0  0  0  0  0
    0.0521    3.4230    8.5926 C   0  0  0  0  0  0  0  0  0  0  0  0
   -0.0360    4.5422    8.0412 O   0  0  0  0  0  0  0  0  0  0  0  0
   -0.8141    2.3588    8.1570 C   0  0  0  0  0  0  0  0  0  0  0  0
   -2.0902    2.6278    7.7334 C   0  0  0  0  0  0  0  0  0  0  0  0
   -2.8905    1.5834    7.3409 C   0  0  0  0  0  0  0  0  0  0  0  0
   -2.4454    0.2717    7.3619 C   0  0  0  0  0  0  0  0  0  0  0  0
   -1.1543   -0.0296    7.7882 C   0  0  0  0  0  0  0  0  0  0  0  0
   -0.3630    1.0244    8.1778 C   0  0  0  0  0  0  0  0  0  0  0  0
   -0.7036   -1.4530    7.8027 C   0  0  0  0  0  0  0  0  0  0  0  0
   -2.6138    3.9545    7.7045 N   0  0  0  0  0  0  0  0  0  0  0  0
   -2.7058    4.7761    8.7643 N   0  0  0  0  0  0  0  0  0  0  0  0
   -3.2425    5.9496    8.4162 C   0  0  0  0  0  0  0  0  0  0  0  0
   -3.5044    5.8662    7.0673 C   0  0  0  0  0  0  0  0  0  0  0  0
   -3.1000    4.6389    6.7074 N   0  0  0  0  0  0  0  0  0  0  0  0
    3.6770    0.8456   12.3330 C   0  0  0  0  0  0  0  0  0  0  0  0
    4.8715    0.9523   12.9431 N   0  0  0  0  0  0  0  0  0  0  0  0
    5.0868   -0.1414   13.6891 C   0  0  0  0  0  0  0  0  0  0  0  0
    3.9766   -0.9418   13.5234 C   0  0  0  0  0  0  0  0  0  0  0  0
    3.1681   -0.3273   12.7172 O   0  0  0  0  0  0  0  0  0  0  0  0
    3.8786   -2.1566   14.1651 C   0  0  0  0  0  0  0  0  0  0  0  0
    4.8903   -2.6215   15.0009 C   0  0  0  0  0  0  0  0  0  0  0  0
    6.0072   -1.8050   15.1603 C   0  0  0  0  0  0  0  0  0  0  0  0
    6.1061   -0.5907   14.5195 C   0  0  0  0  0  0  0  0  0  0  0  0
    7.3061   -2.3708   16.2172 Cl  0  0  0  0  0  0  0  0  0  0  0  0
  1  2  1  0
  2  3  1  0
  3  4  1  0
  4  5  1  0
  5  6  1  0
  6  7  1  0
  7  8  1  0
  8  9  1  0
  9 10  2  0
  9 11  1  0
 11 12  1  0
 12 13  2  0
 13 14  1  0
 14 15  2  0
 15 16  1  0
 15 17  1  0
 12 18  1  0
 18 19  1  0
 19 20  2  0
 20 21  1  0
 21 22  2  0
  5 23  1  0
 23 24  2  0
 24 25  1  0
 25 26  2  0
 26 27  1  0
 26 28  1  0
 28 29  2  0
 29 30  1  0
 30 31  2  0
 30 32  1  0
  8  2  1  0
 16 11  2  0
 22 18  1  0
 27 23  1  0
 31 25  1  0
M  END
$$$$
