
     RDKit          3D

 32 36  0  0  0  0  0  0  0  0999 V2000
   -0.0055    6.3671   11.5684 C   0  0  0  0  0  0  0  0  0  0  0  0
    0.3341    4.9210   11.4398 C   0  0  0  0  0  0  0  0  0  0  0  0
    1.7255    4.6976   11.9173 C   0  0  0  0  0  0  0  0  0  0  0  0
    1.7582    3.3344   12.6021 C   0  0  0  0  0  0  0  0  0  0  0  0
    2.0187    2.3479   11.5521 N   0  0  0  0  0  0  0  0  0  0  0  0
    1.5687    2.3360   10.1909 C   0  0  0  0  0  0  0  0  0  0  0  0
    0.2235    2.8748    9.9171 C   0  0  0  0  0  0  0  0  0  0  0  0
    0.0343    4.2912   10.1900 N   0  0  0  0  0  0  0  0  0  0  0  0
   -0.5390    5.0711    9.1452 C   0  0  0  0  0  0  0  0  0  0  0  0
   -0.1589    6.2520    8.9857 O   0  0  0  0  0  0  0  0  0  0  0  0
   -1.5489    4.5372    8.2690 C   0  0  0  0  0  0  0  0  0  0  0  0
   -1.2689    3.4754    7.4479 C   0  0  0  0  0  0  0  0  0  0  0  0
   -2.2545    3.0055    6.6153 C   0  0  0  0  0  0  0  0  0  0  0  0
   -3.5178    3.5733    6.5827 C   0  0  0  0  0  0  0  0  0  0  0  0
   -3.8287    4.6530    7.4056 C   0  0  0  0  0  0  0  0  0  0  0  0
   -2.8339    5.1134    8.2347 C   0  0  0  0  0  0  0  0  0  0  0  0
   -5.1977    5.2459    7.3463 C   0  0  0  0  0  0  0  0  0  0  0  0
    0.0167    2.8577    7.4217 N   0  0  0  0  0  0  0  0  0  0  0  0
    0.3824    1.7946    8.1585 N   0  0  0  0  0  0  0  0  0  0  0  0
    1.6511    1.4539    7.9122 C   0  0  0  0  0  0  0  0  0  0  0  0
    2.1123    2.3476    6.9721 C   0  0  0  0  0  0  0  0  0  0  0  0
    1.0752    3.1615    6.7243 N   0  0  0  0  0  0  0  0  0  0  0  0
    2.8527    1.2757   11.9495 C   0  0  0  0  0  0  0  0  0  0  0  0
    3.6237    1.1082   13.0395 N   0  0  0  0  0  0  0  0  0  0  0  0
    4.2321   -0.0853   12.9722 C   0  0  0  0  0  0  0  0  0  0  0  0
    3.8112   -0.6631   11.7934 C   0  0  0  0  0  0  0  0  0  0  0  0
    2.9999    0.1686   11.2179 O   0  0  0  0  0  0  0  0  0  0  0  0
    4.2562   -1.9119   11.4197 C   0  0  0  0  0  0  0  0  0  0  0  0
    5.1429   -2.6354   12.2124 C   0  0  0  0  0  0  0  0  0  0  0  0
    5.5618   -2.0418   13.4004 C   0  0  0  0  0  0  0  0  0  0  0  0
    5.1177   -0.7937   13.7749 C   0  0  0  0  0  0  0  0  0  0  0  0
    6.6869   -2.9395   14.4264 Cl  0  0  0  0  0  0  0  0  0  0  0  0
  1  2  1  0
  2  3  1  0
  3  4  1  0
  4  5  1  0
  5  6  1  0
  6  7  1  0
  7  8  1  0
  8  9  1  0
  9 10  2  0
  9 11  1  0
 11 12  1  0
 12 13  2  0
 13 14  1  0
 14 15  2  0
 15 16  1  0
 15 17  1  0
 12 18  1  0
 18 19  1  0
 19 20  2  0
 20 21  1  0
 21 22  2  0
  5 23  1  0
 23 24  2  0
 24 25  1  0
 25 26  2  0
 26 27  1  0
 26 28  1  0
 28 29  2  0
 29 30  1  0
 30 31  2  0
 30 32  1  0
  8  2  1  0
 16 11  2  0
 22 18  1  0
 27 23  1  0
 31 25  1  0
M  END
$$$$
