
     RDKit          3D

 32 36  0  0  0  0  0  0  0  0999 V2000
   -0.7171    4.9462   12.0926 C   0  0  0  0  0  0  0  0  0  0  0  0
    0.0080    3.6698   11.8320 C   0  0  0  0  0  0  0  0  0  0  0  0
    1.3665    3.7432   12.4345 C   0  0  0  0  0  0  0  0  0  0  0  0
    1.7111    2.3495   12.9512 C   0  0  0  0  0  0  0  0  0  0  0  0
    2.3087    1.6256   11.8275 N   0  0  0  0  0  0  0  0  0  0  0  0
    1.9862    1.6964   10.4324 C   0  0  0  0  0  0  0  0  0  0  0  0
    0.5713    1.9066   10.0736 C   0  0  0  0  0  0  0  0  0  0  0  0
   -0.0127    3.1723   10.4901 N   0  0  0  0  0  0  0  0  0  0  0  0
   -0.6913    3.9223    9.4874 C   0  0  0  0  0  0  0  0  0  0  0  0
   -1.1076    5.0699    9.7601 O   0  0  0  0  0  0  0  0  0  0  0  0
   -0.9149    3.3928    8.1675 C   0  0  0  0  0  0  0  0  0  0  0  0
   -1.4445    2.1391    7.9999 C   0  0  0  0  0  0  0  0  0  0  0  0
   -1.6277    1.6639    6.7247 C   0  0  0  0  0  0  0  0  0  0  0  0
   -1.2929    2.4133    5.6088 C   0  0  0  0  0  0  0  0  0  0  0  0
   -0.7527    3.6892    5.7505 C   0  0  0  0  0  0  0  0  0  0  0  0
   -0.5750    4.1536    7.0317 C   0  0  0  0  0  0  0  0  0  0  0  0
   -0.3989    4.4721    4.5294 C   0  0  0  0  0  0  0  0  0  0  0  0
   -1.7939    1.3111    9.1077 N   0  0  0  0  0  0  0  0  0  0  0  0
   -1.4699    0.0133    9.2395 N   0  0  0  0  0  0  0  0  0  0  0  0
   -1.9444   -0.4856   10.3851 C   0  0  0  0  0  0  0  0  0  0  0  0
   -2.6033    0.5491   11.0098 C   0  0  0  0  0  0  0  0  0  0  0  0
   -2.4708    1.5979   10.1841 N   0  0  0  0  0  0  0  0  0  0  0  0
    3.3667    0.7567   12.1865 C   0  0  0  0  0  0  0  0  0  0  0  0
    4.6705    0.9950   12.4183 N   0  0  0  0  0  0  0  0  0  0  0  0
    5.2821   -0.1569   12.7320 C   0  0  0  0  0  0  0  0  0  0  0  0
    4.3077   -1.1312   12.6885 C   0  0  0  0  0  0  0  0  0  0  0  0
    3.1926   -0.5551   12.3630 O   0  0  0  0  0  0  0  0  0  0  0  0
    4.6097   -2.4460   12.9664 C   0  0  0  0  0  0  0  0  0  0  0  0
    5.9024   -2.8406   13.3001 C   0  0  0  0  0  0  0  0  0  0  0  0
    6.8785   -1.8482   13.3404 C   0  0  0  0  0  0  0  0  0  0  0  0
    6.5778   -0.5338   13.0628 C   0  0  0  0  0  0  0  0  0  0  0  0
    8.5283   -2.3218   13.7625 Cl  0  0  0  0  0  0  0  0  0  0  0  0
  1  2  1  0
  2  3  1  0
  3  4  1  0
  4  5  1  0
  5  6  1  0
  6  7  1  0
  7  8  1  0
  8  9  1  0
  9 10  2  0
  9 11  1  0
 11 12  1  0
 12 13  2  0
 13 14  1  0
 14 15  2  0
 15 16  1  0
 15 17  1  0
 12 18  1  0
 18 19  1  0
 19 20  2  0
 20 21  1  0
 21 22  2  0
  5 23  1  0
 23 24  2  0
 24 25  1  0
 25 26  2  0
 26 27  1  0
 26 28  1  0
 28 29  2  0
 29 30  1  0
 30 31  2  0
 30 32  1  0
  8  2  1  0
 16 11  2  0
 22 18  1  0
 27 23  1  0
 31 25  1  0
M  END
$$$$
