
     RDKit          3D

 32 36  0  0  0  0  0  0  0  0999 V2000
    1.1171    2.6390    7.7561 C   0  0  0  0  0  0  0  0  0  0  0  0
    1.6623    2.4464    9.1304 C   0  0  0  0  0  0  0  0  0  0  0  0
    2.2936    1.1024    9.2257 C   0  0  0  0  0  0  0  0  0  0  0  0
    3.5075    1.2337   10.1409 C   0  0  0  0  0  0  0  0  0  0  0  0
    3.0201    1.0411   11.5080 N   0  0  0  0  0  0  0  0  0  0  0  0
    1.7724    1.4438   12.0882 C   0  0  0  0  0  0  0  0  0  0  0  0
    1.1886    2.7162   11.6245 C   0  0  0  0  0  0  0  0  0  0  0  0
    0.7970    2.7673   10.2243 N   0  0  0  0  0  0  0  0  0  0  0  0
   -0.5242    3.2214    9.9476 C   0  0  0  0  0  0  0  0  0  0  0  0
   -1.1203    3.9198   10.7970 O   0  0  0  0  0  0  0  0  0  0  0  0
   -1.1948    2.8943    8.7164 C   0  0  0  0  0  0  0  0  0  0  0  0
   -1.3566    3.8411    7.7379 C   0  0  0  0  0  0  0  0  0  0  0  0
   -2.0158    3.4938    6.5845 C   0  0  0  0  0  0  0  0  0  0  0  0
   -2.5196    2.2190    6.3845 C   0  0  0  0  0  0  0  0  0  0  0  0
   -2.3698    1.2385    7.3622 C   0  0  0  0  0  0  0  0  0  0  0  0
   -1.7077    1.5983    8.5115 C   0  0  0  0  0  0  0  0  0  0  0  0
   -2.9259   -0.1257    7.1195 C   0  0  0  0  0  0  0  0  0  0  0  0
   -0.8764    5.1757    7.8897 N   0  0  0  0  0  0  0  0  0  0  0  0
    0.1063    5.7346    7.1626 N   0  0  0  0  0  0  0  0  0  0  0  0
    0.3286    6.9957    7.5458 C   0  0  0  0  0  0  0  0  0  0  0  0
   -0.5581    7.2475    8.5682 C   0  0  0  0  0  0  0  0  0  0  0  0
   -1.2504    6.1086    8.7198 N   0  0  0  0  0  0  0  0  0  0  0  0
    3.9099    0.3362   12.3534 C   0  0  0  0  0  0  0  0  0  0  0  0
    5.2104    0.5347   12.6355 N   0  0  0  0  0  0  0  0  0  0  0  0
    5.6232   -0.4017   13.5027 C   0  0  0  0  0  0  0  0  0  0  0  0
    4.5270   -1.1986   13.7554 C   0  0  0  0  0  0  0  0  0  0  0  0
    3.5364   -0.7333   13.0600 O   0  0  0  0  0  0  0  0  0  0  0  0
    4.6142   -2.2678   14.6192 C   0  0  0  0  0  0  0  0  0  0  0  0
    5.8051   -2.5843   15.2671 C   0  0  0  0  0  0  0  0  0  0  0  0
    6.9059   -1.7729   15.0039 C   0  0  0  0  0  0  0  0  0  0  0  0
    6.8198   -0.7040   14.1407 C   0  0  0  0  0  0  0  0  0  0  0  0
    8.4303   -2.1518   15.8144 Cl  0  0  0  0  0  0  0  0  0  0  0  0
  1  2  1  0
  2  3  1  0
  3  4  1  0
  4  5  1  0
  5  6  1  0
  6  7  1  0
  7  8  1  0
  8  9  1  0
  9 10  2  0
  9 11  1  0
 11 12  1  0
 12 13  2  0
 13 14  1  0
 14 15  2  0
 15 16  1  0
 15 17  1  0
 12 18  1  0
 18 19  1  0
 19 20  2  0
 20 21  1  0
 21 22  2  0
  5 23  1  0
 23 24  2  0
 24 25  1  0
 25 26  2  0
 26 27  1  0
 26 28  1  0
 28 29  2  0
 29 30  1  0
 30 31  2  0
 30 32  1  0
  8  2  1  0
 16 11  2  0
 22 18  1  0
 27 23  1  0
 31 25  1  0
M  END
$$$$
