
     RDKit          3D

 32 36  0  0  0  0  0  0  0  0999 V2000
    0.9304    5.8629    9.4027 C   0  0  0  0  0  0  0  0  0  0  0  0
    1.1809    4.6865   10.2838 C   0  0  0  0  0  0  0  0  0  0  0  0
    2.4978    4.0852    9.9399 C   0  0  0  0  0  0  0  0  0  0  0  0
    3.1203    3.5799   11.2381 C   0  0  0  0  0  0  0  0  0  0  0  0
    2.6145    2.2209   11.4403 N   0  0  0  0  0  0  0  0  0  0  0  0
    1.3215    1.6825   11.1338 C   0  0  0  0  0  0  0  0  0  0  0  0
    0.1596    2.5763   11.2948 C   0  0  0  0  0  0  0  0  0  0  0  0
    0.1189    3.7363   10.4177 N   0  0  0  0  0  0  0  0  0  0  0  0
   -1.0901    3.9477    9.6953 C   0  0  0  0  0  0  0  0  0  0  0  0
   -1.9867    4.6590   10.2000 O   0  0  0  0  0  0  0  0  0  0  0  0
   -1.3102    3.3604    8.3995 C   0  0  0  0  0  0  0  0  0  0  0  0
   -1.4687    2.0050    8.2662 C   0  0  0  0  0  0  0  0  0  0  0  0
   -1.6606    1.4819    7.0112 C   0  0  0  0  0  0  0  0  0  0  0  0
   -1.6977    2.2832    5.8818 C   0  0  0  0  0  0  0  0  0  0  0  0
   -1.5387    3.6627    5.9885 C   0  0  0  0  0  0  0  0  0  0  0  0
   -1.3480    4.1739    7.2499 C   0  0  0  0  0  0  0  0  0  0  0  0
   -1.5804    4.5003    4.7532 C   0  0  0  0  0  0  0  0  0  0  0  0
   -1.4236    1.1242    9.3875 N   0  0  0  0  0  0  0  0  0  0  0  0
   -2.3194    1.0961   10.3892 N   0  0  0  0  0  0  0  0  0  0  0  0
   -2.0005    0.1634   11.2918 C   0  0  0  0  0  0  0  0  0  0  0  0
   -0.8432   -0.4285   10.8388 C   0  0  0  0  0  0  0  0  0  0  0  0
   -0.5556    0.1996    9.6890 N   0  0  0  0  0  0  0  0  0  0  0  0
    3.5561    1.3218   11.9953 C   0  0  0  0  0  0  0  0  0  0  0  0
    3.7698    0.9333   13.2657 N   0  0  0  0  0  0  0  0  0  0  0  0
    4.7831    0.0549   13.2955 C   0  0  0  0  0  0  0  0  0  0  0  0
    5.1985   -0.0940   11.9894 C   0  0  0  0  0  0  0  0  0  0  0  0
    4.4525    0.6686   11.2522 O   0  0  0  0  0  0  0  0  0  0  0  0
    6.2370   -0.9404   11.6699 C   0  0  0  0  0  0  0  0  0  0  0  0
    6.9041   -1.6745   12.6468 C   0  0  0  0  0  0  0  0  0  0  0  0
    6.4764   -1.5158   13.9626 C   0  0  0  0  0  0  0  0  0  0  0  0
    5.4386   -0.6700   14.2830 C   0  0  0  0  0  0  0  0  0  0  0  0
    7.3055   -2.4371   15.2227 Cl  0  0  0  0  0  0  0  0  0  0  0  0
  1  2  1  0
  2  3  1  0
  3  4  1  0
  4  5  1  0
  5  6  1  0
  6  7  1  0
  7  8  1  0
  8  9  1  0
  9 10  2  0
  9 11  1  0
 11 12  1  0
 12 13  2  0
 13 14  1  0
 14 15  2  0
 15 16  1  0
 15 17  1  0
 12 18  1  0
 18 19  1  0
 19 20  2  0
 20 21  1  0
 21 22  2  0
  5 23  1  0
 23 24  2  0
 24 25  1  0
 25 26  2  0
 26 27  1  0
 26 28  1  0
 28 29  2  0
 29 30  1  0
 30 31  2  0
 30 32  1  0
  8  2  1  0
 16 11  2  0
 22 18  1  0
 27 23  1  0
 31 25  1  0
M  END
$$$$
