
     RDKit          3D

 32 36  0  0  0  0  0  0  0  0999 V2000
    2.1455    4.9084    8.1165 C   0  0  0  0  0  0  0  0  0  0  0  0
    2.0823    3.9545    9.2607 C   0  0  0  0  0  0  0  0  0  0  0  0
    3.3205    3.1298    9.2832 C   0  0  0  0  0  0  0  0  0  0  0  0
    3.6714    2.8756   10.7463 C   0  0  0  0  0  0  0  0  0  0  0  0
    2.9321    1.6778   11.1490 N   0  0  0  0  0  0  0  0  0  0  0  0
    1.6236    1.2467   10.7518 C   0  0  0  0  0  0  0  0  0  0  0  0
    0.6087    2.2903   10.5163 C   0  0  0  0  0  0  0  0  0  0  0  0
    0.8739    3.2033    9.4151 N   0  0  0  0  0  0  0  0  0  0  0  0
   -0.1760    3.3847    8.4700 C   0  0  0  0  0  0  0  0  0  0  0  0
   -0.3350    4.5073    7.9418 O   0  0  0  0  0  0  0  0  0  0  0  0
   -1.0632    2.3100    8.1086 C   0  0  0  0  0  0  0  0  0  0  0  0
   -2.3934    2.5513    7.8798 C   0  0  0  0  0  0  0  0  0  0  0  0
   -3.2099    1.4968    7.5528 C   0  0  0  0  0  0  0  0  0  0  0  0
   -2.7280    0.2022    7.4492 C   0  0  0  0  0  0  0  0  0  0  0  0
   -1.3814   -0.0709    7.6772 C   0  0  0  0  0  0  0  0  0  0  0  0
   -0.5746    0.9930    8.0029 C   0  0  0  0  0  0  0  0  0  0  0  0
   -0.8916   -1.4765    7.5610 C   0  0  0  0  0  0  0  0  0  0  0  0
   -2.9546    3.8584    7.9872 N   0  0  0  0  0  0  0  0  0  0  0  0
   -3.5809    4.5181    6.9976 N   0  0  0  0  0  0  0  0  0  0  0  0
   -3.9911    5.7220    7.4084 C   0  0  0  0  0  0  0  0  0  0  0  0
   -3.6040    5.8302    8.7250 C   0  0  0  0  0  0  0  0  0  0  0  0
   -2.9871    4.6723    9.0048 N   0  0  0  0  0  0  0  0  0  0  0  0
    3.6333    0.8273   12.0368 C   0  0  0  0  0  0  0  0  0  0  0  0
    3.3970    0.4943   13.3188 N   0  0  0  0  0  0  0  0  0  0  0  0
    4.3478   -0.3538   13.7384 C   0  0  0  0  0  0  0  0  0  0  0  0
    5.1932   -0.5414   12.6657 C   0  0  0  0  0  0  0  0  0  0  0  0
    4.7404    0.1711   11.6815 O   0  0  0  0  0  0  0  0  0  0  0  0
    6.2886   -1.3704   12.7653 C   0  0  0  0  0  0  0  0  0  0  0  0
    6.5837   -2.0473   13.9455 C   0  0  0  0  0  0  0  0  0  0  0  0
    5.7232   -1.8498   15.0226 C   0  0  0  0  0  0  0  0  0  0  0  0
    4.6282   -1.0215   14.9241 C   0  0  0  0  0  0  0  0  0  0  0  0
    6.0741   -2.6983   16.5329 Cl  0  0  0  0  0  0  0  0  0  0  0  0
  1  2  1  0
  2  3  1  0
  3  4  1  0
  4  5  1  0
  5  6  1  0
  6  7  1  0
  7  8  1  0
  8  9  1  0
  9 10  2  0
  9 11  1  0
 11 12  1  0
 12 13  2  0
 13 14  1  0
 14 15  2  0
 15 16  1  0
 15 17  1  0
 12 18  1  0
 18 19  1  0
 19 20  2  0
 20 21  1  0
 21 22  2  0
  5 23  1  0
 23 24  2  0
 24 25  1  0
 25 26  2  0
 26 27  1  0
 26 28  1  0
 28 29  2  0
 29 30  1  0
 30 31  2  0
 30 32  1  0
  8  2  1  0
 16 11  2  0
 22 18  1  0
 27 23  1  0
 31 25  1  0
M  END
$$$$
