
     RDKit          3D

 32 36  0  0  0  0  0  0  0  0999 V2000
  -92.5679  -14.3685  -58.9691 C   0  0  0  0  0  0  0  0  0  0  0  0
  -93.8605  -15.0909  -59.1431 C   0  0  0  0  0  0  0  0  0  0  0  0
  -94.9605  -14.1012  -59.2996 C   0  0  0  0  0  0  0  0  0  0  0  0
  -95.9645  -14.6891  -60.2868 C   0  0  0  0  0  0  0  0  0  0  0  0
  -96.8884  -15.5093  -59.5012 N   0  0  0  0  0  0  0  0  0  0  0  0
  -96.6223  -16.3180  -58.3476 C   0  0  0  0  0  0  0  0  0  0  0  0
  -95.3183  -17.0039  -58.2868 C   0  0  0  0  0  0  0  0  0  0  0  0
  -94.1464  -16.1446  -58.2176 N   0  0  0  0  0  0  0  0  0  0  0  0
  -93.2095  -16.4257  -57.1824 C   0  0  0  0  0  0  0  0  0  0  0  0
  -93.3796  -17.4341  -56.4621 O   0  0  0  0  0  0  0  0  0  0  0  0
  -92.0724  -15.5768  -56.9396 C   0  0  0  0  0  0  0  0  0  0  0  0
  -90.8062  -16.0023  -57.2490 C   0  0  0  0  0  0  0  0  0  0  0  0
  -89.7464  -15.1693  -56.9874 C   0  0  0  0  0  0  0  0  0  0  0  0
  -89.9217  -13.9170  -56.4216 C   0  0  0  0  0  0  0  0  0  0  0  0
  -91.1967  -13.4604  -56.0969 C   0  0  0  0  0  0  0  0  0  0  0  0
  -92.2490  -14.3032  -56.3643 C   0  0  0  0  0  0  0  0  0  0  0  0
  -91.3541  -12.1074  -55.4855 C   0  0  0  0  0  0  0  0  0  0  0  0
  -90.5574  -17.2869  -57.8173 N   0  0  0  0  0  0  0  0  0  0  0  0
  -90.2073  -17.5162  -59.0946 N   0  0  0  0  0  0  0  0  0  0  0  0
  -90.0493  -18.8239  -59.3213 C   0  0  0  0  0  0  0  0  0  0  0  0
  -90.3139  -19.4546  -58.1266 C   0  0  0  0  0  0  0  0  0  0  0  0
  -90.6115  -18.4678  -57.2681 N   0  0  0  0  0  0  0  0  0  0  0  0
  -98.2319  -15.4663  -59.9444 C   0  0  0  0  0  0  0  0  0  0  0  0
  -98.8688  -14.6101  -60.7640 N   0  0  0  0  0  0  0  0  0  0  0  0
 -100.1509  -14.9849  -60.8858 C   0  0  0  0  0  0  0  0  0  0  0  0
 -100.2948  -16.1142  -60.1084 C   0  0  0  0  0  0  0  0  0  0  0  0
  -99.1430  -16.3670  -59.5689 O   0  0  0  0  0  0  0  0  0  0  0  0
 -101.5084  -16.7587  -60.0152 C   0  0  0  0  0  0  0  0  0  0  0  0
 -102.6309  -16.2981  -60.6980 C   0  0  0  0  0  0  0  0  0  0  0  0
 -102.4741  -15.1563  -61.4797 C   0  0  0  0  0  0  0  0  0  0  0  0
 -101.2615  -14.5114  -61.5735 C   0  0  0  0  0  0  0  0  0  0  0  0
 -103.8832  -14.5508  -62.3584 Cl  0  0  0  0  0  0  0  0  0  0  0  0
  1  2  1  0
  2  3  1  0
  3  4  1  0
  4  5  1  0
  5  6  1  0
  6  7  1  0
  7  8  1  0
  8  9  1  0
  9 10  2  0
  9 11  1  0
 11 12  1  0
 12 13  2  0
 13 14  1  0
 14 15  2  0
 15 16  1  0
 15 17  1  0
 12 18  1  0
 18 19  1  0
 19 20  2  0
 20 21  1  0
 21 22  2  0
  5 23  1  0
 23 24  2  0
 24 25  1  0
 25 26  2  0
 26 27  1  0
 26 28  1  0
 28 29  2  0
 29 30  1  0
 30 31  2  0
 30 32  1  0
  8  2  1  0
 16 11  2  0
 22 18  1  0
 27 23  1  0
 31 25  1  0
M  END
$$$$
