
     RDKit          3D

 32 36  0  0  0  0  0  0  0  0999 V2000
    2.5795    6.1726    9.0016 C   0  0  0  0  0  0  0  0  0  0  0  0
    2.3325    4.9318    9.7906 C   0  0  0  0  0  0  0  0  0  0  0  0
    3.6129    4.1932    9.9604 C   0  0  0  0  0  0  0  0  0  0  0  0
    3.5881    3.5517   11.3447 C   0  0  0  0  0  0  0  0  0  0  0  0
    2.9246    2.2557   11.1903 N   0  0  0  0  0  0  0  0  0  0  0  0
    1.8354    1.8943   10.3310 C   0  0  0  0  0  0  0  0  0  0  0  0
    0.7978    2.9133   10.0868 C   0  0  0  0  0  0  0  0  0  0  0  0
    1.2313    4.1121    9.3858 N   0  0  0  0  0  0  0  0  0  0  0  0
    0.4589    4.5046    8.2554 C   0  0  0  0  0  0  0  0  0  0  0  0
    0.6523    5.6298    7.7445 O   0  0  0  0  0  0  0  0  0  0  0  0
   -0.5430    3.6413    7.6867 C   0  0  0  0  0  0  0  0  0  0  0  0
   -1.8751    3.8786    7.9086 C   0  0  0  0  0  0  0  0  0  0  0  0
   -2.7993    3.0229    7.3617 C   0  0  0  0  0  0  0  0  0  0  0  0
   -2.4234    1.9313    6.5960 C   0  0  0  0  0  0  0  0  0  0  0  0
   -1.0773    1.6667    6.3556 C   0  0  0  0  0  0  0  0  0  0  0  0
   -0.1624    2.5309    6.9078 C   0  0  0  0  0  0  0  0  0  0  0  0
   -0.7025    0.4812    5.5290 C   0  0  0  0  0  0  0  0  0  0  0  0
   -2.3263    4.9751    8.7019 N   0  0  0  0  0  0  0  0  0  0  0  0
   -2.9588    6.0644    8.2326 N   0  0  0  0  0  0  0  0  0  0  0  0
   -3.2493    6.9140    9.2227 C   0  0  0  0  0  0  0  0  0  0  0  0
   -2.7757    6.3332   10.3774 C   0  0  0  0  0  0  0  0  0  0  0  0
   -2.2342    5.1696    9.9875 N   0  0  0  0  0  0  0  0  0  0  0  0
    3.4635    1.2223   11.9934 C   0  0  0  0  0  0  0  0  0  0  0  0
    4.2957    1.2622   13.0499 N   0  0  0  0  0  0  0  0  0  0  0  0
    4.5226    0.0128   13.4821 C   0  0  0  0  0  0  0  0  0  0  0  0
    3.7974   -0.8162   12.6530 C   0  0  0  0  0  0  0  0  0  0  0  0
    3.1869   -0.0676   11.7880 O   0  0  0  0  0  0  0  0  0  0  0  0
    3.8116   -2.1820   12.8305 C   0  0  0  0  0  0  0  0  0  0  0  0
    4.5541   -2.7756   13.8475 C   0  0  0  0  0  0  0  0  0  0  0  0
    5.2832   -1.9287   14.6784 C   0  0  0  0  0  0  0  0  0  0  0  0
    5.2697   -0.5635   14.5019 C   0  0  0  0  0  0  0  0  0  0  0  0
    6.2340   -2.6564   15.9787 Cl  0  0  0  0  0  0  0  0  0  0  0  0
  1  2  1  0
  2  3  1  0
  3  4  1  0
  4  5  1  0
  5  6  1  0
  6  7  1  0
  7  8  1  0
  8  9  1  0
  9 10  2  0
  9 11  1  0
 11 12  1  0
 12 13  2  0
 13 14  1  0
 14 15  2  0
 15 16  1  0
 15 17  1  0
 12 18  1  0
 18 19  1  0
 19 20  2  0
 20 21  1  0
 21 22  2  0
  5 23  1  0
 23 24  2  0
 24 25  1  0
 25 26  2  0
 26 27  1  0
 26 28  1  0
 28 29  2  0
 29 30  1  0
 30 31  2  0
 30 32  1  0
  8  2  1  0
 16 11  2  0
 22 18  1  0
 27 23  1  0
 31 25  1  0
M  END
$$$$
