
     RDKit          3D

 46 52  0  0  0  0  0  0  0  0999 V2000
    0.8339   -2.3722    4.8028 C   0  0  0  0  0  0  0  0  0  0  0  0
    1.0164   -0.9276    5.2818 C   0  0  0  0  0  0  0  0  0  0  0  0
    1.3027   -1.0019    6.7203 C   0  0  0  0  0  0  0  0  0  0  0  0
    2.3324   -1.8498    7.0593 N   0  0  0  0  0  0  0  0  0  0  0  0
    2.7332   -2.0344    8.3120 C   0  0  0  0  0  0  0  0  0  0  0  0
    2.0578   -1.3242    9.2772 C   0  0  0  0  0  0  0  0  0  0  0  0
    2.4452   -1.5069   10.5785 C   0  0  0  0  0  0  0  0  0  0  0  0
    3.4771   -2.3715   10.9096 C   0  0  0  0  0  0  0  0  0  0  0  0
    4.1520   -3.0811    9.9175 C   0  0  0  0  0  0  0  0  0  0  0  0
    3.7620   -2.8998    8.5962 C   0  0  0  0  0  0  0  0  0  0  0  0
    3.8617   -2.6084   12.2502 N   0  0  0  0  0  0  0  0  0  0  0  0
    5.1433   -2.0870   12.6618 C   0  0  0  0  0  0  0  0  0  0  0  0
    4.9356   -0.6694   13.0300 C   0  0  0  0  0  0  0  0  0  0  0  0
    5.3666   -0.2105   14.2426 C   0  0  0  0  0  0  0  0  0  0  0  0
    5.1834    1.1175   14.6073 C   0  0  0  0  0  0  0  0  0  0  0  0
    4.5568    1.9951   13.7380 C   0  0  0  0  0  0  0  0  0  0  0  0
    4.1241    1.5431   12.5263 C   0  0  0  0  0  0  0  0  0  0  0  0
    4.3072    0.2285   12.1682 C   0  0  0  0  0  0  0  0  0  0  0  0
    3.0556   -3.3244   13.1272 C   0  0  0  0  0  0  0  0  0  0  0  0
    3.3747   -3.3010   14.3764 O   0  0  0  0  0  0  0  0  0  0  0  0
    1.8901   -4.0953   12.7625 C   0  0  0  0  0  0  0  0  0  0  0  0
    0.5908   -3.8160   12.5631 C   0  0  0  0  0  0  0  0  0  0  0  0
   -0.2809   -4.7728   12.2378 C   0  0  0  0  0  0  0  0  0  0  0  0
    0.1461   -6.0554   12.1032 C   0  0  0  0  0  0  0  0  0  0  0  0
    1.9518   -5.9240   12.4670 S   0  0  0  0  0  0  0  0  0  0  0  0
    1.0213   -0.4698    8.9225 C   0  0  0  0  0  0  0  0  0  0  0  0
    0.4323    0.1644    9.8332 O   0  0  0  0  0  0  0  0  0  0  0  0
    0.6280   -0.2978    7.6223 N   0  0  0  0  0  0  0  0  0  0  0  0
   -0.3946    0.6139    7.2889 C   0  0  0  0  0  0  0  0  0  0  0  0
   -0.0942    2.0247    7.0929 C   0  0  0  0  0  0  0  0  0  0  0  0
    1.0808    2.5700    7.5238 C   0  0  0  0  0  0  0  0  0  0  0  0
    1.3140    3.9230    7.2761 C   0  0  0  0  0  0  0  0  0  0  0  0
    0.4090    4.7111    6.6195 C   0  0  0  0  0  0  0  0  0  0  0  0
   -0.7690    4.1283    6.1971 C   0  0  0  0  0  0  0  0  0  0  0  0
   -1.0001    2.8048    6.4379 C   0  0  0  0  0  0  0  0  0  0  0  0
    0.6040    6.1297    6.3192 C   0  0  0  0  0  0  0  0  0  0  0  0
    0.5787    6.4985    4.9954 C   0  0  0  0  0  0  0  0  0  0  0  0
    0.7480    7.8251    4.6710 C   0  0  0  0  0  0  0  0  0  0  0  0
    0.9400    8.7828    5.6224 C   0  0  0  0  0  0  0  0  0  0  0  0
    0.9615    8.3935    6.9346 C   0  0  0  0  0  0  0  0  0  0  0  0
    0.7948    7.0645    7.3081 C   0  0  0  0  0  0  0  0  0  0  0  0
    0.8220    6.6887    8.7242 C   0  0  0  0  0  0  0  0  0  0  0  0
   -0.1804    6.1316    9.3947 N   0  0  0  0  0  0  0  0  0  0  0  0
    0.2305    5.9570   10.6287 N   0  0  0  0  0  0  0  0  0  0  0  0
    1.4841    6.4016   10.7324 N   0  0  0  0  0  0  0  0  0  0  0  0
    1.8464    6.8547    9.5465 N   0  0  0  0  0  0  0  0  0  0  0  0
  1  2  1  0
  2  3  1  0
  3  4  2  0
  4  5  1  0
  5  6  2  0
  6  7  1  0
  7  8  2  0
  8  9  1  0
  9 10  2  0
  8 11  1  0
 11 12  1  0
 12 13  1  0
 13 14  2  0
 14 15  1  0
 15 16  2  0
 16 17  1  0
 17 18  2  0
 11 19  1  0
 19 20  2  0
 19 21  1  0
 21 22  2  0
 22 23  1  0
 23 24  2  0
 24 25  1  0
  6 26  1  0
 26 27  2  0
 26 28  1  0
 28 29  1  0
 29 30  1  0
 30 31  2  0
 31 32  1  0
 32 33  2  0
 33 34  1  0
 34 35  2  0
 33 36  1  0
 36 37  2  0
 37 38  1  0
 38 39  2  0
 39 40  1  0
 40 41  2  0
 41 42  1  0
 42 43  2  0
 43 44  1  0
 44 45  1  0
 45 46  2  0
 28  3  1  0
 10  5  1  0
 18 13  1  0
 25 21  1  0
 35 30  1  0
 41 36  1  0
 46 42  1  0
M  END
$$$$
