
     RDKit          3D

 46 52  0  0  0  0  0  0  0  0999 V2000
   -3.5016    0.7466   11.0850 C   0  0  0  0  0  0  0  0  0  0  0  0
   -2.5920    1.0402   12.2833 C   0  0  0  0  0  0  0  0  0  0  0  0
   -1.2786    0.4711   11.9549 C   0  0  0  0  0  0  0  0  0  0  0  0
   -1.2104   -0.9014   12.0316 N   0  0  0  0  0  0  0  0  0  0  0  0
   -0.1048   -1.5856   11.7610 C   0  0  0  0  0  0  0  0  0  0  0  0
    0.9939   -0.8446   11.3924 C   0  0  0  0  0  0  0  0  0  0  0  0
    2.1499   -1.5273   11.1197 C   0  0  0  0  0  0  0  0  0  0  0  0
    2.2101   -2.9093   11.2101 C   0  0  0  0  0  0  0  0  0  0  0  0
    1.0856   -3.6442   11.5828 C   0  0  0  0  0  0  0  0  0  0  0  0
   -0.0890   -2.9560   11.8613 C   0  0  0  0  0  0  0  0  0  0  0  0
    3.4056   -3.6290   10.9771 N   0  0  0  0  0  0  0  0  0  0  0  0
    3.4962   -4.3560    9.7332 C   0  0  0  0  0  0  0  0  0  0  0  0
    3.7469   -3.3607    8.6679 C   0  0  0  0  0  0  0  0  0  0  0  0
    5.0135   -3.1817    8.1877 C   0  0  0  0  0  0  0  0  0  0  0  0
    5.2705   -2.2538    7.1861 C   0  0  0  0  0  0  0  0  0  0  0  0
    4.2368   -1.4958    6.6613 C   0  0  0  0  0  0  0  0  0  0  0  0
    2.9705   -1.6697    7.1366 C   0  0  0  0  0  0  0  0  0  0  0  0
    2.7193   -2.5889    8.1276 C   0  0  0  0  0  0  0  0  0  0  0  0
    4.4384   -3.6529   11.9068 C   0  0  0  0  0  0  0  0  0  0  0  0
    5.5164   -4.2789   11.5767 O   0  0  0  0  0  0  0  0  0  0  0  0
    4.4109   -3.0386   13.2135 C   0  0  0  0  0  0  0  0  0  0  0  0
    3.5207   -2.2994   13.8969 C   0  0  0  0  0  0  0  0  0  0  0  0
    3.7928   -1.8462   15.1223 C   0  0  0  0  0  0  0  0  0  0  0  0
    4.9899   -2.1342   15.6964 C   0  0  0  0  0  0  0  0  0  0  0  0
    5.8321   -3.1423   14.3986 S   0  0  0  0  0  0  0  0  0  0  0  0
    0.9123    0.5403   11.3167 C   0  0  0  0  0  0  0  0  0  0  0  0
    1.9367    1.1807   10.9720 O   0  0  0  0  0  0  0  0  0  0  0  0
   -0.2410    1.2214   11.6012 N   0  0  0  0  0  0  0  0  0  0  0  0
   -0.3065    2.6234   11.4674 C   0  0  0  0  0  0  0  0  0  0  0  0
   -0.5158    3.2341   10.1627 C   0  0  0  0  0  0  0  0  0  0  0  0
   -0.8093    4.5612   10.0355 C   0  0  0  0  0  0  0  0  0  0  0  0
   -0.9682    5.0850    8.7523 C   0  0  0  0  0  0  0  0  0  0  0  0
   -0.8388    4.3154    7.6288 C   0  0  0  0  0  0  0  0  0  0  0  0
   -0.5415    2.9773    7.7929 C   0  0  0  0  0  0  0  0  0  0  0  0
   -0.3852    2.4618    9.0470 C   0  0  0  0  0  0  0  0  0  0  0  0
   -0.9800    4.8110    6.2594 C   0  0  0  0  0  0  0  0  0  0  0  0
   -1.8528    4.1391    5.4375 C   0  0  0  0  0  0  0  0  0  0  0  0
   -2.0222    4.5796    4.1448 C   0  0  0  0  0  0  0  0  0  0  0  0
   -1.3507    5.6609    3.6561 C   0  0  0  0  0  0  0  0  0  0  0  0
   -0.4865    6.3155    4.4919 C   0  0  0  0  0  0  0  0  0  0  0  0
   -0.2842    5.9054    5.8051 C   0  0  0  0  0  0  0  0  0  0  0  0
    0.6483    6.6345    6.6689 C   0  0  0  0  0  0  0  0  0  0  0  0
    0.3112    7.3668    7.7247 N   0  0  0  0  0  0  0  0  0  0  0  0
    1.4208    7.8587    8.2235 N   0  0  0  0  0  0  0  0  0  0  0  0
    2.4490    7.4373    7.4853 N   0  0  0  0  0  0  0  0  0  0  0  0
    1.9633    6.6772    6.5213 N   0  0  0  0  0  0  0  0  0  0  0  0
  1  2  1  0
  2  3  1  0
  3  4  2  0
  4  5  1  0
  5  6  2  0
  6  7  1  0
  7  8  2  0
  8  9  1  0
  9 10  2  0
  8 11  1  0
 11 12  1  0
 12 13  1  0
 13 14  2  0
 14 15  1  0
 15 16  2  0
 16 17  1  0
 17 18  2  0
 11 19  1  0
 19 20  2  0
 19 21  1  0
 21 22  2  0
 22 23  1  0
 23 24  2  0
 24 25  1  0
  6 26  1  0
 26 27  2  0
 26 28  1  0
 28 29  1  0
 29 30  1  0
 30 31  2  0
 31 32  1  0
 32 33  2  0
 33 34  1  0
 34 35  2  0
 33 36  1  0
 36 37  2  0
 37 38  1  0
 38 39  2  0
 39 40  1  0
 40 41  2  0
 41 42  1  0
 42 43  2  0
 43 44  1  0
 44 45  1  0
 45 46  2  0
 28  3  1  0
 10  5  1  0
 18 13  1  0
 25 21  1  0
 35 30  1  0
 41 36  1  0
 46 42  1  0
M  END
$$$$
