
     RDKit          3D

 46 52  0  0  0  0  0  0  0  0999 V2000
   -2.5989   -0.4186    7.7014 C   0  0  0  0  0  0  0  0  0  0  0  0
   -1.3113   -0.1715    6.9073 C   0  0  0  0  0  0  0  0  0  0  0  0
   -0.1995   -0.4333    7.8303 C   0  0  0  0  0  0  0  0  0  0  0  0
   -0.4937   -1.3055    8.8534 N   0  0  0  0  0  0  0  0  0  0  0  0
    0.3931   -1.6628    9.7753 C   0  0  0  0  0  0  0  0  0  0  0  0
    1.6471   -1.1096    9.6592 C   0  0  0  0  0  0  0  0  0  0  0  0
    2.5760   -1.4538   10.6054 C   0  0  0  0  0  0  0  0  0  0  0  0
    2.2657   -2.3254   11.6377 C   0  0  0  0  0  0  0  0  0  0  0  0
    0.9900   -2.8785   11.7380 C   0  0  0  0  0  0  0  0  0  0  0  0
    0.0440   -2.5316   10.7811 C   0  0  0  0  0  0  0  0  0  0  0  0
    3.1965   -2.6575   12.6500 N   0  0  0  0  0  0  0  0  0  0  0  0
    3.8863   -3.9181   12.5121 C   0  0  0  0  0  0  0  0  0  0  0  0
    3.0357   -4.9484   13.1472 C   0  0  0  0  0  0  0  0  0  0  0  0
    2.2448   -5.7501   12.3735 C   0  0  0  0  0  0  0  0  0  0  0  0
    1.4400   -6.7251   12.9495 C   0  0  0  0  0  0  0  0  0  0  0  0
    1.4320   -6.8944   14.3242 C   0  0  0  0  0  0  0  0  0  0  0  0
    2.2190   -6.0971   15.1018 C   0  0  0  0  0  0  0  0  0  0  0  0
    3.0146   -5.1334   14.5288 C   0  0  0  0  0  0  0  0  0  0  0  0
    3.4254   -1.8218   13.7366 C   0  0  0  0  0  0  0  0  0  0  0  0
    4.1861   -2.2695   14.6767 O   0  0  0  0  0  0  0  0  0  0  0  0
    2.8844   -0.4937   13.9073 C   0  0  0  0  0  0  0  0  0  0  0  0
    1.7128    0.0987   13.6205 C   0  0  0  0  0  0  0  0  0  0  0  0
    1.5045    1.3886   13.8922 C   0  0  0  0  0  0  0  0  0  0  0  0
    2.4906    2.1228   14.4702 C   0  0  0  0  0  0  0  0  0  0  0  0
    3.8563    0.8942   14.6584 S   0  0  0  0  0  0  0  0  0  0  0  0
    1.9328   -0.2317    8.6208 C   0  0  0  0  0  0  0  0  0  0  0  0
    3.0913    0.2487    8.5470 O   0  0  0  0  0  0  0  0  0  0  0  0
    0.9992    0.1200    7.6830 N   0  0  0  0  0  0  0  0  0  0  0  0
    1.3335    0.9746    6.6126 C   0  0  0  0  0  0  0  0  0  0  0  0
    1.2366    2.4196    6.7603 C   0  0  0  0  0  0  0  0  0  0  0  0
    1.1550    3.2433    5.6748 C   0  0  0  0  0  0  0  0  0  0  0  0
    1.0350    4.6162    5.8918 C   0  0  0  0  0  0  0  0  0  0  0  0
    0.9961    5.1555    7.1483 C   0  0  0  0  0  0  0  0  0  0  0  0
    1.0808    4.2946    8.2241 C   0  0  0  0  0  0  0  0  0  0  0  0
    1.1982    2.9509    8.0150 C   0  0  0  0  0  0  0  0  0  0  0  0
    0.8575    6.5831    7.4375 C   0  0  0  0  0  0  0  0  0  0  0  0
    1.8427    7.4162    6.9640 C   0  0  0  0  0  0  0  0  0  0  0  0
    1.7445    8.7674    7.2058 C   0  0  0  0  0  0  0  0  0  0  0  0
    0.7005    9.3031    7.9002 C   0  0  0  0  0  0  0  0  0  0  0  0
   -0.2696    8.4553    8.3626 C   0  0  0  0  0  0  0  0  0  0  0  0
   -0.2111    7.0837    8.1417 C   0  0  0  0  0  0  0  0  0  0  0  0
   -1.2712    6.2098    8.6515 C   0  0  0  0  0  0  0  0  0  0  0  0
   -2.0596    5.4391    7.9104 N   0  0  0  0  0  0  0  0  0  0  0  0
   -2.8770    4.8214    8.7305 N   0  0  0  0  0  0  0  0  0  0  0  0
   -2.6030    5.2019    9.9795 N   0  0  0  0  0  0  0  0  0  0  0  0
   -1.6047    6.0640    9.9244 N   0  0  0  0  0  0  0  0  0  0  0  0
  1  2  1  0
  2  3  1  0
  3  4  2  0
  4  5  1  0
  5  6  2  0
  6  7  1  0
  7  8  2  0
  8  9  1  0
  9 10  2  0
  8 11  1  0
 11 12  1  0
 12 13  1  0
 13 14  2  0
 14 15  1  0
 15 16  2  0
 16 17  1  0
 17 18  2  0
 11 19  1  0
 19 20  2  0
 19 21  1  0
 21 22  2  0
 22 23  1  0
 23 24  2  0
 24 25  1  0
  6 26  1  0
 26 27  2  0
 26 28  1  0
 28 29  1  0
 29 30  1  0
 30 31  2  0
 31 32  1  0
 32 33  2  0
 33 34  1  0
 34 35  2  0
 33 36  1  0
 36 37  2  0
 37 38  1  0
 38 39  2  0
 39 40  1  0
 40 41  2  0
 41 42  1  0
 42 43  2  0
 43 44  1  0
 44 45  1  0
 45 46  2  0
 28  3  1  0
 10  5  1  0
 18 13  1  0
 25 21  1  0
 35 30  1  0
 41 36  1  0
 46 42  1  0
M  END
$$$$
