
     RDKit          3D

 46 52  0  0  0  0  0  0  0  0999 V2000
    2.1766   -3.1614    5.1869 C   0  0  0  0  0  0  0  0  0  0  0  0
    1.0761   -2.2271    5.7021 C   0  0  0  0  0  0  0  0  0  0  0  0
    1.4432   -1.8759    7.0800 C   0  0  0  0  0  0  0  0  0  0  0  0
    1.1908   -2.8575    8.0111 N   0  0  0  0  0  0  0  0  0  0  0  0
    1.4667   -2.7161    9.3025 C   0  0  0  0  0  0  0  0  0  0  0  0
    2.0286   -1.5175    9.6763 C   0  0  0  0  0  0  0  0  0  0  0  0
    2.3114   -1.3433   11.0053 C   0  0  0  0  0  0  0  0  0  0  0  0
    2.0434   -2.3350   11.9362 C   0  0  0  0  0  0  0  0  0  0  0  0
    1.4759   -3.5446   11.5385 C   0  0  0  0  0  0  0  0  0  0  0  0
    1.1865   -3.7256   10.1916 C   0  0  0  0  0  0  0  0  0  0  0  0
    2.2856   -2.1572   13.3186 N   0  0  0  0  0  0  0  0  0  0  0  0
    1.1312   -1.9526   14.1609 C   0  0  0  0  0  0  0  0  0  0  0  0
    0.4861   -0.6988   13.7136 C   0  0  0  0  0  0  0  0  0  0  0  0
   -0.7114   -0.7457   13.0572 C   0  0  0  0  0  0  0  0  0  0  0  0
   -1.3353    0.4200   12.6304 C   0  0  0  0  0  0  0  0  0  0  0  0
   -0.7441    1.6499   12.8681 C   0  0  0  0  0  0  0  0  0  0  0  0
    0.4512    1.7032   13.5224 C   0  0  0  0  0  0  0  0  0  0  0  0
    1.0659    0.5480   13.9438 C   0  0  0  0  0  0  0  0  0  0  0  0
    3.5729   -2.1600   13.8424 C   0  0  0  0  0  0  0  0  0  0  0  0
    3.6948   -1.9717   15.1123 O   0  0  0  0  0  0  0  0  0  0  0  0
    4.7893   -2.3541   13.0886 C   0  0  0  0  0  0  0  0  0  0  0  0
    5.0803   -2.5738   11.7951 C   0  0  0  0  0  0  0  0  0  0  0  0
    6.3408   -2.7332   11.3866 C   0  0  0  0  0  0  0  0  0  0  0  0
    7.3541   -2.6729   12.2894 C   0  0  0  0  0  0  0  0  0  0  0  0
    6.4660   -2.3618   13.8783 S   0  0  0  0  0  0  0  0  0  0  0  0
    2.2806   -0.5348    8.7270 C   0  0  0  0  0  0  0  0  0  0  0  0
    2.7989    0.5443    9.1080 O   0  0  0  0  0  0  0  0  0  0  0  0
    1.9862   -0.7068    7.4008 N   0  0  0  0  0  0  0  0  0  0  0  0
    2.2992    0.2898    6.4539 C   0  0  0  0  0  0  0  0  0  0  0  0
    1.6990    1.6129    6.5450 C   0  0  0  0  0  0  0  0  0  0  0  0
    2.2819    2.7017    5.9633 C   0  0  0  0  0  0  0  0  0  0  0  0
    1.6356    3.9338    6.0662 C   0  0  0  0  0  0  0  0  0  0  0  0
    0.4461    4.0810    6.7255 C   0  0  0  0  0  0  0  0  0  0  0  0
   -0.1162    2.9599    7.3022 C   0  0  0  0  0  0  0  0  0  0  0  0
    0.5135    1.7529    7.2032 C   0  0  0  0  0  0  0  0  0  0  0  0
   -0.2840    5.3425    6.8539 C   0  0  0  0  0  0  0  0  0  0  0  0
   -0.7266    5.9305    5.6933 C   0  0  0  0  0  0  0  0  0  0  0  0
   -1.4264    7.1129    5.7713 C   0  0  0  0  0  0  0  0  0  0  0  0
   -1.6930    7.7173    6.9641 C   0  0  0  0  0  0  0  0  0  0  0  0
   -1.2431    7.1143    8.1077 C   0  0  0  0  0  0  0  0  0  0  0  0
   -0.5322    5.9196    8.0760 C   0  0  0  0  0  0  0  0  0  0  0  0
   -0.0696    5.3047    9.3231 C   0  0  0  0  0  0  0  0  0  0  0  0
    1.1731    4.9079    9.5738 N   0  0  0  0  0  0  0  0  0  0  0  0
    1.1810    4.4066   10.7865 N   0  0  0  0  0  0  0  0  0  0  0  0
   -0.0498    4.4886   11.2947 N   0  0  0  0  0  0  0  0  0  0  0  0
   -0.8223    5.0474   10.3815 N   0  0  0  0  0  0  0  0  0  0  0  0
  1  2  1  0
  2  3  1  0
  3  4  2  0
  4  5  1  0
  5  6  2  0
  6  7  1  0
  7  8  2  0
  8  9  1  0
  9 10  2  0
  8 11  1  0
 11 12  1  0
 12 13  1  0
 13 14  2  0
 14 15  1  0
 15 16  2  0
 16 17  1  0
 17 18  2  0
 11 19  1  0
 19 20  2  0
 19 21  1  0
 21 22  2  0
 22 23  1  0
 23 24  2  0
 24 25  1  0
  6 26  1  0
 26 27  2  0
 26 28  1  0
 28 29  1  0
 29 30  1  0
 30 31  2  0
 31 32  1  0
 32 33  2  0
 33 34  1  0
 34 35  2  0
 33 36  1  0
 36 37  2  0
 37 38  1  0
 38 39  2  0
 39 40  1  0
 40 41  2  0
 41 42  1  0
 42 43  2  0
 43 44  1  0
 44 45  1  0
 45 46  2  0
 28  3  1  0
 10  5  1  0
 18 13  1  0
 25 21  1  0
 35 30  1  0
 41 36  1  0
 46 42  1  0
M  END
$$$$
