
     RDKit          3D

 46 52  0  0  0  0  0  0  0  0999 V2000
    1.4372   -2.5526    4.8145 C   0  0  0  0  0  0  0  0  0  0  0  0
    0.4317   -1.6895    5.5850 C   0  0  0  0  0  0  0  0  0  0  0  0
    1.0214   -1.4491    6.9083 C   0  0  0  0  0  0  0  0  0  0  0  0
    0.9003   -2.4977    7.7915 N   0  0  0  0  0  0  0  0  0  0  0  0
    1.3817   -2.4590    9.0287 C   0  0  0  0  0  0  0  0  0  0  0  0
    2.0211   -1.2978    9.3962 C   0  0  0  0  0  0  0  0  0  0  0  0
    2.5160   -1.2294   10.6717 C   0  0  0  0  0  0  0  0  0  0  0  0
    2.3793   -2.2878   11.5565 C   0  0  0  0  0  0  0  0  0  0  0  0
    1.7304   -3.4581   11.1657 C   0  0  0  0  0  0  0  0  0  0  0  0
    1.2260   -3.5319    9.8730 C   0  0  0  0  0  0  0  0  0  0  0  0
    2.8428   -2.2196   12.8914 N   0  0  0  0  0  0  0  0  0  0  0  0
    3.9861   -3.0349   13.2262 C   0  0  0  0  0  0  0  0  0  0  0  0
    3.4923   -4.4168   13.4126 C   0  0  0  0  0  0  0  0  0  0  0  0
    3.8925   -5.4042   12.5572 C   0  0  0  0  0  0  0  0  0  0  0  0
    3.4423   -6.7089   12.7155 C   0  0  0  0  0  0  0  0  0  0  0  0
    2.5766   -7.0230   13.7502 C   0  0  0  0  0  0  0  0  0  0  0  0
    2.1734   -6.0418   14.6072 C   0  0  0  0  0  0  0  0  0  0  0  0
    2.6209   -4.7517   14.4481 C   0  0  0  0  0  0  0  0  0  0  0  0
    2.2188   -1.4216   13.8429 C   0  0  0  0  0  0  0  0  0  0  0  0
    2.6462   -1.5051   15.0566 O   0  0  0  0  0  0  0  0  0  0  0  0
    1.1306   -0.5058   13.5925 C   0  0  0  0  0  0  0  0  0  0  0  0
    0.9881    0.8303   13.6202 C   0  0  0  0  0  0  0  0  0  0  0  0
   -0.1838    1.4072   13.3468 C   0  0  0  0  0  0  0  0  0  0  0  0
   -1.2572    0.6359   13.0330 C   0  0  0  0  0  0  0  0  0  0  0  0
   -0.5704   -1.0757   13.1267 S   0  0  0  0  0  0  0  0  0  0  0  0
    2.1388   -0.2468    8.4951 C   0  0  0  0  0  0  0  0  0  0  0  0
    2.7336    0.7951    8.8677 O   0  0  0  0  0  0  0  0  0  0  0  0
    1.6329   -0.3131    7.2244 N   0  0  0  0  0  0  0  0  0  0  0  0
    1.8115    0.7510    6.3169 C   0  0  0  0  0  0  0  0  0  0  0  0
    1.0834    2.0001    6.4874 C   0  0  0  0  0  0  0  0  0  0  0  0
   -0.2744    2.0204    6.6271 C   0  0  0  0  0  0  0  0  0  0  0  0
   -0.9030    3.2515    6.8159 C   0  0  0  0  0  0  0  0  0  0  0  0
   -0.2053    4.4270    6.8657 C   0  0  0  0  0  0  0  0  0  0  0  0
    1.1665    4.3710    6.7210 C   0  0  0  0  0  0  0  0  0  0  0  0
    1.7845    3.1681    6.5363 C   0  0  0  0  0  0  0  0  0  0  0  0
   -0.8071    5.7441    7.0749 C   0  0  0  0  0  0  0  0  0  0  0  0
   -1.8482    6.0949    6.2491 C   0  0  0  0  0  0  0  0  0  0  0  0
   -2.4487    7.3213    6.4197 C   0  0  0  0  0  0  0  0  0  0  0  0
   -2.0419    8.1973    7.3821 C   0  0  0  0  0  0  0  0  0  0  0  0
   -1.0033    7.8276    8.1937 C   0  0  0  0  0  0  0  0  0  0  0  0
   -0.3673    6.5986    8.0570 C   0  0  0  0  0  0  0  0  0  0  0  0
    0.7396    6.2393    8.9475 C   0  0  0  0  0  0  0  0  0  0  0  0
    1.9018    6.8772    9.0308 N   0  0  0  0  0  0  0  0  0  0  0  0
    2.6229    6.2499    9.9300 N   0  0  0  0  0  0  0  0  0  0  0  0
    1.9172    5.2240   10.4089 N   0  0  0  0  0  0  0  0  0  0  0  0
    0.7483    5.2224    9.7952 N   0  0  0  0  0  0  0  0  0  0  0  0
  1  2  1  0
  2  3  1  0
  3  4  2  0
  4  5  1  0
  5  6  2  0
  6  7  1  0
  7  8  2  0
  8  9  1  0
  9 10  2  0
  8 11  1  0
 11 12  1  0
 12 13  1  0
 13 14  2  0
 14 15  1  0
 15 16  2  0
 16 17  1  0
 17 18  2  0
 11 19  1  0
 19 20  2  0
 19 21  1  0
 21 22  2  0
 22 23  1  0
 23 24  2  0
 24 25  1  0
  6 26  1  0
 26 27  2  0
 26 28  1  0
 28 29  1  0
 29 30  1  0
 30 31  2  0
 31 32  1  0
 32 33  2  0
 33 34  1  0
 34 35  2  0
 33 36  1  0
 36 37  2  0
 37 38  1  0
 38 39  2  0
 39 40  1  0
 40 41  2  0
 41 42  1  0
 42 43  2  0
 43 44  1  0
 44 45  1  0
 45 46  2  0
 28  3  1  0
 10  5  1  0
 18 13  1  0
 25 21  1  0
 35 30  1  0
 41 36  1  0
 46 42  1  0
M  END
$$$$
