
     RDKit          3D

 46 52  0  0  0  0  0  0  0  0999 V2000
    0.7282   -2.0384    5.0471 C   0  0  0  0  0  0  0  0  0  0  0  0
   -0.0446   -1.0551    5.9333 C   0  0  0  0  0  0  0  0  0  0  0  0
    0.7068   -0.9530    7.1909 C   0  0  0  0  0  0  0  0  0  0  0  0
    0.4523   -1.9575    8.0967 N   0  0  0  0  0  0  0  0  0  0  0  0
    1.0476   -2.0290    9.2818 C   0  0  0  0  0  0  0  0  0  0  0  0
    1.9503   -1.0318    9.5699 C   0  0  0  0  0  0  0  0  0  0  0  0
    2.5686   -1.0775   10.7914 C   0  0  0  0  0  0  0  0  0  0  0  0
    2.2970   -2.0883   11.7004 C   0  0  0  0  0  0  0  0  0  0  0  0
    1.3810   -3.0922   11.3901 C   0  0  0  0  0  0  0  0  0  0  0  0
    0.7505   -3.0497   10.1525 C   0  0  0  0  0  0  0  0  0  0  0  0
    2.8905   -2.1278   12.9840 N   0  0  0  0  0  0  0  0  0  0  0  0
    4.1535   -2.8177   13.0965 C   0  0  0  0  0  0  0  0  0  0  0  0
    3.8503   -4.2624   13.1924 C   0  0  0  0  0  0  0  0  0  0  0  0
    3.5953   -4.9814   12.0589 C   0  0  0  0  0  0  0  0  0  0  0  0
    3.3103   -6.3395   12.1263 C   0  0  0  0  0  0  0  0  0  0  0  0
    3.2817   -6.9819   13.3532 C   0  0  0  0  0  0  0  0  0  0  0  0
    3.5351   -6.2696   14.4882 C   0  0  0  0  0  0  0  0  0  0  0  0
    3.8171   -4.9259   14.4181 C   0  0  0  0  0  0  0  0  0  0  0  0
    2.2811   -1.5477   14.0902 C   0  0  0  0  0  0  0  0  0  0  0  0
    2.8396   -1.7330   15.2377 O   0  0  0  0  0  0  0  0  0  0  0  0
    1.0742   -0.7550   14.0688 C   0  0  0  0  0  0  0  0  0  0  0  0
   -0.1650   -0.9246   13.5771 C   0  0  0  0  0  0  0  0  0  0  0  0
   -1.0955    0.0237   13.7031 C   0  0  0  0  0  0  0  0  0  0  0  0
   -0.7919    1.1848   14.3396 C   0  0  0  0  0  0  0  0  0  0  0  0
    0.9751    0.9381   14.8162 S   0  0  0  0  0  0  0  0  0  0  0  0
    2.2002   -0.0242    8.6466 C   0  0  0  0  0  0  0  0  0  0  0  0
    3.0349    0.8659    8.9457 O   0  0  0  0  0  0  0  0  0  0  0  0
    1.5722    0.0259    7.4309 N   0  0  0  0  0  0  0  0  0  0  0  0
    1.8835    1.0335    6.4952 C   0  0  0  0  0  0  0  0  0  0  0  0
    1.4843    2.4132    6.7319 C   0  0  0  0  0  0  0  0  0  0  0  0
    0.9422    2.8042    7.9223 C   0  0  0  0  0  0  0  0  0  0  0  0
    0.6097    4.1488    8.0895 C   0  0  0  0  0  0  0  0  0  0  0  0
    0.8101    5.0778    7.1055 C   0  0  0  0  0  0  0  0  0  0  0  0
    1.3602    4.6490    5.9142 C   0  0  0  0  0  0  0  0  0  0  0  0
    1.6867    3.3342    5.7476 C   0  0  0  0  0  0  0  0  0  0  0  0
    0.4949    6.5013    7.2280 C   0  0  0  0  0  0  0  0  0  0  0  0
    1.5065    7.3918    6.9589 C   0  0  0  0  0  0  0  0  0  0  0  0
    1.2483    8.7403    7.0527 C   0  0  0  0  0  0  0  0  0  0  0  0
    0.0207    9.2181    7.4042 C   0  0  0  0  0  0  0  0  0  0  0  0
   -0.9725    8.3137    7.6678 C   0  0  0  0  0  0  0  0  0  0  0  0
   -0.7565    6.9425    7.5855 C   0  0  0  0  0  0  0  0  0  0  0  0
   -1.8468    6.0067    7.8734 C   0  0  0  0  0  0  0  0  0  0  0  0
   -2.5061    5.9196    9.0234 N   0  0  0  0  0  0  0  0  0  0  0  0
   -3.3948    4.9636    8.8873 N   0  0  0  0  0  0  0  0  0  0  0  0
   -3.2942    4.4536    7.6587 N   0  0  0  0  0  0  0  0  0  0  0  0
   -2.3313    5.1054    7.0334 N   0  0  0  0  0  0  0  0  0  0  0  0
  1  2  1  0
  2  3  1  0
  3  4  2  0
  4  5  1  0
  5  6  2  0
  6  7  1  0
  7  8  2  0
  8  9  1  0
  9 10  2  0
  8 11  1  0
 11 12  1  0
 12 13  1  0
 13 14  2  0
 14 15  1  0
 15 16  2  0
 16 17  1  0
 17 18  2  0
 11 19  1  0
 19 20  2  0
 19 21  1  0
 21 22  2  0
 22 23  1  0
 23 24  2  0
 24 25  1  0
  6 26  1  0
 26 27  2  0
 26 28  1  0
 28 29  1  0
 29 30  1  0
 30 31  2  0
 31 32  1  0
 32 33  2  0
 33 34  1  0
 34 35  2  0
 33 36  1  0
 36 37  2  0
 37 38  1  0
 38 39  2  0
 39 40  1  0
 40 41  2  0
 41 42  1  0
 42 43  2  0
 43 44  1  0
 44 45  1  0
 45 46  2  0
 28  3  1  0
 10  5  1  0
 18 13  1  0
 25 21  1  0
 35 30  1  0
 41 36  1  0
 46 42  1  0
M  END
$$$$
