
     RDKit          3D

 46 52  0  0  0  0  0  0  0  0999 V2000
    2.1566   -1.7890    4.5510 C   0  0  0  0  0  0  0  0  0  0  0  0
    2.6727   -0.5463    5.2852 C   0  0  0  0  0  0  0  0  0  0  0  0
    2.3815   -0.7564    6.7091 C   0  0  0  0  0  0  0  0  0  0  0  0
    3.3292   -1.4872    7.3889 N   0  0  0  0  0  0  0  0  0  0  0  0
    3.2336   -1.7668    8.6837 C   0  0  0  0  0  0  0  0  0  0  0  0
    2.1199   -1.2824    9.3296 C   0  0  0  0  0  0  0  0  0  0  0  0
    1.9930   -1.5679   10.6634 C   0  0  0  0  0  0  0  0  0  0  0  0
    2.9486   -2.3138   11.3359 C   0  0  0  0  0  0  0  0  0  0  0  0
    4.0723   -2.7944   10.6653 C   0  0  0  0  0  0  0  0  0  0  0  0
    4.2051   -2.5081    9.3121 C   0  0  0  0  0  0  0  0  0  0  0  0
    2.8133   -2.6579   12.7014 N   0  0  0  0  0  0  0  0  0  0  0  0
    2.7085   -4.0639   13.0113 C   0  0  0  0  0  0  0  0  0  0  0  0
    1.3576   -4.4993   12.5942 C   0  0  0  0  0  0  0  0  0  0  0  0
    0.3928   -3.5681   12.3318 C   0  0  0  0  0  0  0  0  0  0  0  0
   -0.8817   -3.9554   11.9369 C   0  0  0  0  0  0  0  0  0  0  0  0
   -1.1881   -5.2997   11.8047 C   0  0  0  0  0  0  0  0  0  0  0  0
   -0.2294   -6.2340   12.0655 C   0  0  0  0  0  0  0  0  0  0  0  0
    1.0309   -5.8475   12.4558 C   0  0  0  0  0  0  0  0  0  0  0  0
    2.7644   -1.6909   13.6984 C   0  0  0  0  0  0  0  0  0  0  0  0
    2.4696   -2.0852   14.8903 O   0  0  0  0  0  0  0  0  0  0  0  0
    3.0137   -0.2800   13.5174 C   0  0  0  0  0  0  0  0  0  0  0  0
    3.6665    0.4597   12.6049 C   0  0  0  0  0  0  0  0  0  0  0  0
    3.7410    1.7876   12.7152 C   0  0  0  0  0  0  0  0  0  0  0  0
    3.1477    2.4104   13.7668 C   0  0  0  0  0  0  0  0  0  0  0  0
    2.4053    1.0048   14.7066 S   0  0  0  0  0  0  0  0  0  0  0  0
    1.1710   -0.5442    8.6332 C   0  0  0  0  0  0  0  0  0  0  0  0
    0.1702   -0.1157    9.2601 O   0  0  0  0  0  0  0  0  0  0  0  0
    1.2942   -0.2701    7.2973 N   0  0  0  0  0  0  0  0  0  0  0  0
    0.3394    0.5236    6.6293 C   0  0  0  0  0  0  0  0  0  0  0  0
    0.1353    1.9139    7.0094 C   0  0  0  0  0  0  0  0  0  0  0  0
   -0.7431    2.7149    6.3383 C   0  0  0  0  0  0  0  0  0  0  0  0
   -0.9095    4.0291    6.7760 C   0  0  0  0  0  0  0  0  0  0  0  0
   -0.2256    4.5331    7.8481 C   0  0  0  0  0  0  0  0  0  0  0  0
    0.6547    3.6965    8.5045 C   0  0  0  0  0  0  0  0  0  0  0  0
    0.8197    2.4102    8.0787 C   0  0  0  0  0  0  0  0  0  0  0  0
   -0.3688    5.8960    8.3609 C   0  0  0  0  0  0  0  0  0  0  0  0
   -1.6127    6.4727    8.2667 C   0  0  0  0  0  0  0  0  0  0  0  0
   -1.7920    7.7499    8.7468 C   0  0  0  0  0  0  0  0  0  0  0  0
   -0.7737    8.4589    9.3120 C   0  0  0  0  0  0  0  0  0  0  0  0
    0.4569    7.8653    9.3959 C   0  0  0  0  0  0  0  0  0  0  0  0
    0.6836    6.5771    8.9238 C   0  0  0  0  0  0  0  0  0  0  0  0
    2.0155    5.9761    9.0342 C   0  0  0  0  0  0  0  0  0  0  0  0
    2.7903    5.6233    8.0145 N   0  0  0  0  0  0  0  0  0  0  0  0
    3.8907    5.1197    8.5220 N   0  0  0  0  0  0  0  0  0  0  0  0
    3.8073    5.1563    9.8530 N   0  0  0  0  0  0  0  0  0  0  0  0
    2.6406    5.6894   10.1655 N   0  0  0  0  0  0  0  0  0  0  0  0
  1  2  1  0
  2  3  1  0
  3  4  2  0
  4  5  1  0
  5  6  2  0
  6  7  1  0
  7  8  2  0
  8  9  1  0
  9 10  2  0
  8 11  1  0
 11 12  1  0
 12 13  1  0
 13 14  2  0
 14 15  1  0
 15 16  2  0
 16 17  1  0
 17 18  2  0
 11 19  1  0
 19 20  2  0
 19 21  1  0
 21 22  2  0
 22 23  1  0
 23 24  2  0
 24 25  1  0
  6 26  1  0
 26 27  2  0
 26 28  1  0
 28 29  1  0
 29 30  1  0
 30 31  2  0
 31 32  1  0
 32 33  2  0
 33 34  1  0
 34 35  2  0
 33 36  1  0
 36 37  2  0
 37 38  1  0
 38 39  2  0
 39 40  1  0
 40 41  2  0
 41 42  1  0
 42 43  2  0
 43 44  1  0
 44 45  1  0
 45 46  2  0
 28  3  1  0
 10  5  1  0
 18 13  1  0
 25 21  1  0
 35 30  1  0
 41 36  1  0
 46 42  1  0
M  END
$$$$
