
     RDKit          3D

 46 52  0  0  0  0  0  0  0  0999 V2000
    5.4812    2.1165   13.5194 C   0  0  0  0  0  0  0  0  0  0  0  0
    4.9728    2.2163   12.0768 C   0  0  0  0  0  0  0  0  0  0  0  0
    3.8913    1.2309   11.9503 C   0  0  0  0  0  0  0  0  0  0  0  0
    4.3119   -0.0756   11.8481 N   0  0  0  0  0  0  0  0  0  0  0  0
    3.4718   -1.0979   11.7349 C   0  0  0  0  0  0  0  0  0  0  0  0
    2.1322   -0.7856   11.7242 C   0  0  0  0  0  0  0  0  0  0  0  0
    1.2461   -1.8225   11.5964 C   0  0  0  0  0  0  0  0  0  0  0  0
    1.6812   -3.1339   11.4838 C   0  0  0  0  0  0  0  0  0  0  0  0
    3.0430   -3.4318   11.4993 C   0  0  0  0  0  0  0  0  0  0  0  0
    3.9457   -2.3833   11.6277 C   0  0  0  0  0  0  0  0  0  0  0  0
    0.7845   -4.2134   11.3053 N   0  0  0  0  0  0  0  0  0  0  0  0
    0.2791   -4.8447   12.5012 C   0  0  0  0  0  0  0  0  0  0  0  0
    1.3066   -5.8109   12.9475 C   0  0  0  0  0  0  0  0  0  0  0  0
    1.9020   -5.6567   14.1675 C   0  0  0  0  0  0  0  0  0  0  0  0
    2.8677   -6.5538   14.6068 C   0  0  0  0  0  0  0  0  0  0  0  0
    3.2386   -7.6208   13.8053 C   0  0  0  0  0  0  0  0  0  0  0  0
    2.6481   -7.7799   12.5864 C   0  0  0  0  0  0  0  0  0  0  0  0
    1.6926   -6.8907   12.1547 C   0  0  0  0  0  0  0  0  0  0  0  0
    0.4193   -4.6601   10.0410 C   0  0  0  0  0  0  0  0  0  0  0  0
   -0.3244   -5.7117    9.9775 O   0  0  0  0  0  0  0  0  0  0  0  0
    0.8010   -4.0504    8.7887 C   0  0  0  0  0  0  0  0  0  0  0  0
    0.3452   -3.0201    8.0561 C   0  0  0  0  0  0  0  0  0  0  0  0
    0.9134   -2.6924    6.8938 C   0  0  0  0  0  0  0  0  0  0  0  0
    1.9732   -3.4088    6.4366 C   0  0  0  0  0  0  0  0  0  0  0  0
    2.2100   -4.6753    7.7594 S   0  0  0  0  0  0  0  0  0  0  0  0
    1.7197    0.5369   11.8299 C   0  0  0  0  0  0  0  0  0  0  0  0
    0.4872    0.7803   11.8206 O   0  0  0  0  0  0  0  0  0  0  0  0
    2.6077    1.5727   11.9457 N   0  0  0  0  0  0  0  0  0  0  0  0
    2.1571    2.8996   12.1010 C   0  0  0  0  0  0  0  0  0  0  0  0
    1.9749    3.7606   10.9414 C   0  0  0  0  0  0  0  0  0  0  0  0
    2.1707    3.2978    9.6721 C   0  0  0  0  0  0  0  0  0  0  0  0
    1.9495    4.1709    8.6067 C   0  0  0  0  0  0  0  0  0  0  0  0
    1.5449    5.4640    8.7950 C   0  0  0  0  0  0  0  0  0  0  0  0
    1.3560    5.8999   10.0911 C   0  0  0  0  0  0  0  0  0  0  0  0
    1.5716    5.0481   11.1356 C   0  0  0  0  0  0  0  0  0  0  0  0
    1.2840    6.4198    7.7183 C   0  0  0  0  0  0  0  0  0  0  0  0
    2.2825    6.6081    6.7928 C   0  0  0  0  0  0  0  0  0  0  0  0
    2.0728    7.4911    5.7583 C   0  0  0  0  0  0  0  0  0  0  0  0
    0.9059    8.1836    5.6246 C   0  0  0  0  0  0  0  0  0  0  0  0
   -0.0752    7.9806    6.5574 C   0  0  0  0  0  0  0  0  0  0  0  0
    0.0932    7.0983    7.6189 C   0  0  0  0  0  0  0  0  0  0  0  0
   -0.9825    6.9074    8.5955 C   0  0  0  0  0  0  0  0  0  0  0  0
   -1.6080    5.7615    8.8412 N   0  0  0  0  0  0  0  0  0  0  0  0
   -2.5044    6.0022    9.7688 N   0  0  0  0  0  0  0  0  0  0  0  0
   -2.4420    7.2920   10.1039 N   0  0  0  0  0  0  0  0  0  0  0  0
   -1.4949    7.8493    9.3722 N   0  0  0  0  0  0  0  0  0  0  0  0
  1  2  1  0
  2  3  1  0
  3  4  2  0
  4  5  1  0
  5  6  2  0
  6  7  1  0
  7  8  2  0
  8  9  1  0
  9 10  2  0
  8 11  1  0
 11 12  1  0
 12 13  1  0
 13 14  2  0
 14 15  1  0
 15 16  2  0
 16 17  1  0
 17 18  2  0
 11 19  1  0
 19 20  2  0
 19 21  1  0
 21 22  2  0
 22 23  1  0
 23 24  2  0
 24 25  1  0
  6 26  1  0
 26 27  2  0
 26 28  1  0
 28 29  1  0
 29 30  1  0
 30 31  2  0
 31 32  1  0
 32 33  2  0
 33 34  1  0
 34 35  2  0
 33 36  1  0
 36 37  2  0
 37 38  1  0
 38 39  2  0
 39 40  1  0
 40 41  2  0
 41 42  1  0
 42 43  2  0
 43 44  1  0
 44 45  1  0
 45 46  2  0
 28  3  1  0
 10  5  1  0
 18 13  1  0
 25 21  1  0
 35 30  1  0
 41 36  1  0
 46 42  1  0
M  END
$$$$
