
     RDKit          3D

 46 52  0  0  0  0  0  0  0  0999 V2000
    1.9375   -1.6381    4.8389 C   0  0  0  0  0  0  0  0  0  0  0  0
    2.3576   -0.2850    5.4238 C   0  0  0  0  0  0  0  0  0  0  0  0
    2.1770   -0.3887    6.8775 C   0  0  0  0  0  0  0  0  0  0  0  0
    3.1593   -1.0979    7.5305 N   0  0  0  0  0  0  0  0  0  0  0  0
    3.1617   -1.2854    8.8453 C   0  0  0  0  0  0  0  0  0  0  0  0
    2.1149   -0.7265    9.5410 C   0  0  0  0  0  0  0  0  0  0  0  0
    2.0891   -0.9163   10.8974 C   0  0  0  0  0  0  0  0  0  0  0  0
    3.0784   -1.6412   11.5436 C   0  0  0  0  0  0  0  0  0  0  0  0
    4.1334   -2.1983   10.8224 C   0  0  0  0  0  0  0  0  0  0  0  0
    4.1634   -2.0092    9.4461 C   0  0  0  0  0  0  0  0  0  0  0  0
    3.0455   -1.8871   12.9364 N   0  0  0  0  0  0  0  0  0  0  0  0
    3.8925   -1.0612   13.7636 C   0  0  0  0  0  0  0  0  0  0  0  0
    5.2557   -1.6313   13.6918 C   0  0  0  0  0  0  0  0  0  0  0  0
    6.3423   -0.8035   13.7191 C   0  0  0  0  0  0  0  0  0  0  0  0
    7.6312   -1.3182   13.6548 C   0  0  0  0  0  0  0  0  0  0  0  0
    7.8276   -2.6862   13.5614 C   0  0  0  0  0  0  0  0  0  0  0  0
    6.7470   -3.5176   13.5333 C   0  0  0  0  0  0  0  0  0  0  0  0
    5.4729   -3.0052   13.5975 C   0  0  0  0  0  0  0  0  0  0  0  0
    2.2511   -2.8872   13.4844 C   0  0  0  0  0  0  0  0  0  0  0  0
    2.2646   -3.0162   14.7674 O   0  0  0  0  0  0  0  0  0  0  0  0
    1.4109   -3.7979   12.7426 C   0  0  0  0  0  0  0  0  0  0  0  0
    1.5465   -4.5045   11.6076 C   0  0  0  0  0  0  0  0  0  0  0  0
    0.5572   -5.2738   11.1488 C   0  0  0  0  0  0  0  0  0  0  0  0
   -0.6116   -5.3495   11.8372 C   0  0  0  0  0  0  0  0  0  0  0  0
   -0.3093   -4.2338   13.2772 S   0  0  0  0  0  0  0  0  0  0  0  0
    1.1302   -0.0111    8.8710 C   0  0  0  0  0  0  0  0  0  0  0  0
    0.1931    0.4876    9.5428 O   0  0  0  0  0  0  0  0  0  0  0  0
    1.1519    0.1673    7.5135 N   0  0  0  0  0  0  0  0  0  0  0  0
    0.1649    0.9402    6.8683 C   0  0  0  0  0  0  0  0  0  0  0  0
    0.0306    2.3608    7.1567 C   0  0  0  0  0  0  0  0  0  0  0  0
   -1.0804    3.0617    6.7852 C   0  0  0  0  0  0  0  0  0  0  0  0
   -1.1539    4.4139    7.1203 C   0  0  0  0  0  0  0  0  0  0  0  0
   -0.1554    5.0515    7.8043 C   0  0  0  0  0  0  0  0  0  0  0  0
    0.9541    4.3135    8.1650 C   0  0  0  0  0  0  0  0  0  0  0  0
    1.0289    2.9902    7.8388 C   0  0  0  0  0  0  0  0  0  0  0  0
   -0.1827    6.4612    8.1951 C   0  0  0  0  0  0  0  0  0  0  0  0
   -0.6892    6.7565    9.4382 C   0  0  0  0  0  0  0  0  0  0  0  0
   -0.7231    8.0698    9.8479 C   0  0  0  0  0  0  0  0  0  0  0  0
   -0.2701    9.0849    9.0585 C   0  0  0  0  0  0  0  0  0  0  0  0
    0.2304    8.7684    7.8243 C   0  0  0  0  0  0  0  0  0  0  0  0
    0.2839    7.4555    7.3693 C   0  0  0  0  0  0  0  0  0  0  0  0
    0.8292    7.1577    6.0422 C   0  0  0  0  0  0  0  0  0  0  0  0
    0.1260    6.7460    4.9930 N   0  0  0  0  0  0  0  0  0  0  0  0
    0.9706    6.5837    4.0019 N   0  0  0  0  0  0  0  0  0  0  0  0
    2.1972    6.8921    4.4262 N   0  0  0  0  0  0  0  0  0  0  0  0
    2.1034    7.2482    5.6940 N   0  0  0  0  0  0  0  0  0  0  0  0
  1  2  1  0
  2  3  1  0
  3  4  2  0
  4  5  1  0
  5  6  2  0
  6  7  1  0
  7  8  2  0
  8  9  1  0
  9 10  2  0
  8 11  1  0
 11 12  1  0
 12 13  1  0
 13 14  2  0
 14 15  1  0
 15 16  2  0
 16 17  1  0
 17 18  2  0
 11 19  1  0
 19 20  2  0
 19 21  1  0
 21 22  2  0
 22 23  1  0
 23 24  2  0
 24 25  1  0
  6 26  1  0
 26 27  2  0
 26 28  1  0
 28 29  1  0
 29 30  1  0
 30 31  2  0
 31 32  1  0
 32 33  2  0
 33 34  1  0
 34 35  2  0
 33 36  1  0
 36 37  2  0
 37 38  1  0
 38 39  2  0
 39 40  1  0
 40 41  2  0
 41 42  1  0
 42 43  2  0
 43 44  1  0
 44 45  1  0
 45 46  2  0
 28  3  1  0
 10  5  1  0
 18 13  1  0
 25 21  1  0
 35 30  1  0
 41 36  1  0
 46 42  1  0
M  END
$$$$
