
     RDKit          3D

 46 52  0  0  0  0  0  0  0  0999 V2000
    2.6218   -2.6191    4.9122 C   0  0  0  0  0  0  0  0  0  0  0  0
    1.4170   -1.8003    5.3894 C   0  0  0  0  0  0  0  0  0  0  0  0
    1.6372   -1.5336    6.8166 C   0  0  0  0  0  0  0  0  0  0  0  0
    1.4865   -2.6286    7.6368 N   0  0  0  0  0  0  0  0  0  0  0  0
    1.6556   -2.5736    8.9530 C   0  0  0  0  0  0  0  0  0  0  0  0
    1.9956   -1.3457    9.4714 C   0  0  0  0  0  0  0  0  0  0  0  0
    2.1638   -1.2611   10.8284 C   0  0  0  0  0  0  0  0  0  0  0  0
    1.9994   -2.3683   11.6463 C   0  0  0  0  0  0  0  0  0  0  0  0
    1.6571   -3.6055   11.1027 C   0  0  0  0  0  0  0  0  0  0  0  0
    1.4845   -3.6960    9.7270 C   0  0  0  0  0  0  0  0  0  0  0  0
    2.1238   -2.2916   13.0534 N   0  0  0  0  0  0  0  0  0  0  0  0
    0.9863   -2.7203   13.8320 C   0  0  0  0  0  0  0  0  0  0  0  0
    1.1547   -4.1685   14.0826 C   0  0  0  0  0  0  0  0  0  0  0  0
    1.9125   -4.9231   13.2323 C   0  0  0  0  0  0  0  0  0  0  0  0
    2.0852   -6.2843   13.4504 C   0  0  0  0  0  0  0  0  0  0  0  0
    1.4857   -6.8934   14.5404 C   0  0  0  0  0  0  0  0  0  0  0  0
    0.7278   -6.1456   15.3926 C   0  0  0  0  0  0  0  0  0  0  0  0
    0.5591   -4.7988   15.1742 C   0  0  0  0  0  0  0  0  0  0  0  0
    3.2771   -1.8097   13.6610 C   0  0  0  0  0  0  0  0  0  0  0  0
    3.3188   -1.8295   14.9497 O   0  0  0  0  0  0  0  0  0  0  0  0
    4.4354   -1.2861   12.9755 C   0  0  0  0  0  0  0  0  0  0  0  0
    5.2184   -1.7142   11.9707 C   0  0  0  0  0  0  0  0  0  0  0  0
    6.2606   -0.9943   11.5504 C   0  0  0  0  0  0  0  0  0  0  0  0
    6.5411    0.1949   12.1443 C   0  0  0  0  0  0  0  0  0  0  0  0
    5.2180    0.3326   13.4251 S   0  0  0  0  0  0  0  0  0  0  0  0
    2.1468   -0.2481    8.6331 C   0  0  0  0  0  0  0  0  0  0  0  0
    2.4623    0.8550    9.1450 O   0  0  0  0  0  0  0  0  0  0  0  0
    1.9665   -0.3324    7.2784 N   0  0  0  0  0  0  0  0  0  0  0  0
    2.1755    0.7879    6.4483 C   0  0  0  0  0  0  0  0  0  0  0  0
    1.3516    1.9795    6.5910 C   0  0  0  0  0  0  0  0  0  0  0  0
    1.8171    3.2141    6.2407 C   0  0  0  0  0  0  0  0  0  0  0  0
    0.9621    4.3081    6.3770 C   0  0  0  0  0  0  0  0  0  0  0  0
   -0.3167    4.1808    6.8458 C   0  0  0  0  0  0  0  0  0  0  0  0
   -0.7558    2.9184    7.1909 C   0  0  0  0  0  0  0  0  0  0  0  0
    0.0782    1.8460    7.0586 C   0  0  0  0  0  0  0  0  0  0  0  0
   -1.2620    5.2874    6.9968 C   0  0  0  0  0  0  0  0  0  0  0  0
   -2.3106    5.3402    6.1101 C   0  0  0  0  0  0  0  0  0  0  0  0
   -3.2279    6.3597    6.2244 C   0  0  0  0  0  0  0  0  0  0  0  0
   -3.1272    7.3173    7.1897 C   0  0  0  0  0  0  0  0  0  0  0  0
   -2.0751    7.2455    8.0625 C   0  0  0  0  0  0  0  0  0  0  0  0
   -1.1249    6.2333    7.9841 C   0  0  0  0  0  0  0  0  0  0  0  0
   -0.0142    6.1903    8.9391 C   0  0  0  0  0  0  0  0  0  0  0  0
    0.9977    7.0497    8.9857 N   0  0  0  0  0  0  0  0  0  0  0  0
    1.7814    6.6702    9.9675 N   0  0  0  0  0  0  0  0  0  0  0  0
    1.2642    5.5789   10.5344 N   0  0  0  0  0  0  0  0  0  0  0  0
    0.1489    5.2855    9.8917 N   0  0  0  0  0  0  0  0  0  0  0  0
  1  2  1  0
  2  3  1  0
  3  4  2  0
  4  5  1  0
  5  6  2  0
  6  7  1  0
  7  8  2  0
  8  9  1  0
  9 10  2  0
  8 11  1  0
 11 12  1  0
 12 13  1  0
 13 14  2  0
 14 15  1  0
 15 16  2  0
 16 17  1  0
 17 18  2  0
 11 19  1  0
 19 20  2  0
 19 21  1  0
 21 22  2  0
 22 23  1  0
 23 24  2  0
 24 25  1  0
  6 26  1  0
 26 27  2  0
 26 28  1  0
 28 29  1  0
 29 30  1  0
 30 31  2  0
 31 32  1  0
 32 33  2  0
 33 34  1  0
 34 35  2  0
 33 36  1  0
 36 37  2  0
 37 38  1  0
 38 39  2  0
 39 40  1  0
 40 41  2  0
 41 42  1  0
 42 43  2  0
 43 44  1  0
 44 45  1  0
 45 46  2  0
 28  3  1  0
 10  5  1  0
 18 13  1  0
 25 21  1  0
 35 30  1  0
 41 36  1  0
 46 42  1  0
M  END
$$$$
