
     RDKit          3D

 46 52  0  0  0  0  0  0  0  0999 V2000
    1.1509   -2.5300    4.5733 C   0  0  0  0  0  0  0  0  0  0  0  0
    1.8410   -1.2105    4.9371 C   0  0  0  0  0  0  0  0  0  0  0  0
    1.6819   -1.0468    6.3878 C   0  0  0  0  0  0  0  0  0  0  0  0
    2.5933   -1.7426    7.1491 N   0  0  0  0  0  0  0  0  0  0  0  0
    2.6036   -1.7049    8.4766 C   0  0  0  0  0  0  0  0  0  0  0  0
    1.6411   -0.9217    9.0701 C   0  0  0  0  0  0  0  0  0  0  0  0
    1.6240   -0.8761   10.4391 C   0  0  0  0  0  0  0  0  0  0  0  0
    2.5404   -1.5893   11.1964 C   0  0  0  0  0  0  0  0  0  0  0  0
    3.5107   -2.3759   10.5774 C   0  0  0  0  0  0  0  0  0  0  0  0
    3.5315   -2.4260    9.1889 C   0  0  0  0  0  0  0  0  0  0  0  0
    2.5109   -1.5916   12.6108 N   0  0  0  0  0  0  0  0  0  0  0  0
    3.0885   -0.4481   13.2760 C   0  0  0  0  0  0  0  0  0  0  0  0
    4.5430   -0.6971   13.3798 C   0  0  0  0  0  0  0  0  0  0  0  0
    5.0070   -1.9749   13.5170 C   0  0  0  0  0  0  0  0  0  0  0  0
    6.3691   -2.2310   13.6142 C   0  0  0  0  0  0  0  0  0  0  0  0
    7.2760   -1.1849   13.5727 C   0  0  0  0  0  0  0  0  0  0  0  0
    6.8190    0.0927   13.4362 C   0  0  0  0  0  0  0  0  0  0  0  0
    5.4706    0.3428   13.3400 C   0  0  0  0  0  0  0  0  0  0  0  0
    1.9694   -2.6506   13.3297 C   0  0  0  0  0  0  0  0  0  0  0  0
    1.8556   -2.5020   14.6056 O   0  0  0  0  0  0  0  0  0  0  0  0
    1.5230   -3.9064   12.7735 C   0  0  0  0  0  0  0  0  0  0  0  0
    0.4792   -4.2945   12.0214 C   0  0  0  0  0  0  0  0  0  0  0  0
    0.3199   -5.5704   11.6640 C   0  0  0  0  0  0  0  0  0  0  0  0
    1.2264   -6.4999   12.0637 C   0  0  0  0  0  0  0  0  0  0  0  0
    2.4316   -5.4994   13.0418 S   0  0  0  0  0  0  0  0  0  0  0  0
    0.7277   -0.2224    8.2909 C   0  0  0  0  0  0  0  0  0  0  0  0
   -0.1332    0.4853    8.8709 O   0  0  0  0  0  0  0  0  0  0  0  0
    0.7393   -0.2789    6.9229 N   0  0  0  0  0  0  0  0  0  0  0  0
   -0.1695    0.4812    6.1584 C   0  0  0  0  0  0  0  0  0  0  0  0
   -0.1820    1.9339    6.2513 C   0  0  0  0  0  0  0  0  0  0  0  0
   -1.3429    2.6448    6.1496 C   0  0  0  0  0  0  0  0  0  0  0  0
   -1.2837    4.0327    6.2773 C   0  0  0  0  0  0  0  0  0  0  0  0
   -0.1080    4.6955    6.5003 C   0  0  0  0  0  0  0  0  0  0  0  0
    1.0475    3.9465    6.5982 C   0  0  0  0  0  0  0  0  0  0  0  0
    0.9929    2.5884    6.4738 C   0  0  0  0  0  0  0  0  0  0  0  0
    0.0138    6.1451    6.6566 C   0  0  0  0  0  0  0  0  0  0  0  0
   -0.3558    6.9234    5.5857 C   0  0  0  0  0  0  0  0  0  0  0  0
   -0.2660    8.2922    5.6956 C   0  0  0  0  0  0  0  0  0  0  0  0
    0.1782    8.8981    6.8334 C   0  0  0  0  0  0  0  0  0  0  0  0
    0.5409    8.1041    7.8878 C   0  0  0  0  0  0  0  0  0  0  0  0
    0.4665    6.7171    7.8211 C   0  0  0  0  0  0  0  0  0  0  0  0
    0.8623    5.9022    8.9729 C   0  0  0  0  0  0  0  0  0  0  0  0
    0.1098    4.9783    9.5601 N   0  0  0  0  0  0  0  0  0  0  0  0
    0.8121    4.4810   10.5509 N   0  0  0  0  0  0  0  0  0  0  0  0
    1.9990    5.0891   10.5854 N   0  0  0  0  0  0  0  0  0  0  0  0
    2.0247    5.9707    9.6029 N   0  0  0  0  0  0  0  0  0  0  0  0
  1  2  1  0
  2  3  1  0
  3  4  2  0
  4  5  1  0
  5  6  2  0
  6  7  1  0
  7  8  2  0
  8  9  1  0
  9 10  2  0
  8 11  1  0
 11 12  1  0
 12 13  1  0
 13 14  2  0
 14 15  1  0
 15 16  2  0
 16 17  1  0
 17 18  2  0
 11 19  1  0
 19 20  2  0
 19 21  1  0
 21 22  2  0
 22 23  1  0
 23 24  2  0
 24 25  1  0
  6 26  1  0
 26 27  2  0
 26 28  1  0
 28 29  1  0
 29 30  1  0
 30 31  2  0
 31 32  1  0
 32 33  2  0
 33 34  1  0
 34 35  2  0
 33 36  1  0
 36 37  2  0
 37 38  1  0
 38 39  2  0
 39 40  1  0
 40 41  2  0
 41 42  1  0
 42 43  2  0
 43 44  1  0
 44 45  1  0
 45 46  2  0
 28  3  1  0
 10  5  1  0
 18 13  1  0
 25 21  1  0
 35 30  1  0
 41 36  1  0
 46 42  1  0
M  END
$$$$
