
     RDKit          3D

 46 52  0  0  0  0  0  0  0  0999 V2000
    2.9647   -0.3064    5.7152 C   0  0  0  0  0  0  0  0  0  0  0  0
    1.5774   -0.8550    6.0672 C   0  0  0  0  0  0  0  0  0  0  0  0
    1.5012   -0.8772    7.5336 C   0  0  0  0  0  0  0  0  0  0  0  0
    2.4798   -1.6235    8.1497 N   0  0  0  0  0  0  0  0  0  0  0  0
    2.5694   -1.7488    9.4689 C   0  0  0  0  0  0  0  0  0  0  0  0
    1.6189   -1.0843   10.2086 C   0  0  0  0  0  0  0  0  0  0  0  0
    1.6834   -1.2079   11.5714 C   0  0  0  0  0  0  0  0  0  0  0  0
    2.6674   -1.9708   12.1810 C   0  0  0  0  0  0  0  0  0  0  0  0
    3.6242   -2.6352   11.4152 C   0  0  0  0  0  0  0  0  0  0  0  0
    3.5623   -2.5136   10.0324 C   0  0  0  0  0  0  0  0  0  0  0  0
    2.7238   -2.1480   13.5834 N   0  0  0  0  0  0  0  0  0  0  0  0
    3.3815   -1.1127   14.3447 C   0  0  0  0  0  0  0  0  0  0  0  0
    4.8323   -1.2407   14.0857 C   0  0  0  0  0  0  0  0  0  0  0  0
    5.3607   -2.4573   13.7576 C   0  0  0  0  0  0  0  0  0  0  0  0
    6.7201   -2.5991   13.5085 C   0  0  0  0  0  0  0  0  0  0  0  0
    7.5587   -1.4997   13.5912 C   0  0  0  0  0  0  0  0  0  0  0  0
    7.0373   -0.2829   13.9185 C   0  0  0  0  0  0  0  0  0  0  0  0
    5.6916   -0.1457   14.1642 C   0  0  0  0  0  0  0  0  0  0  0  0
    2.1893   -3.2724   14.2010 C   0  0  0  0  0  0  0  0  0  0  0  0
    2.1601   -3.2810   15.4902 O   0  0  0  0  0  0  0  0  0  0  0  0
    1.6636   -4.4356   13.5255 C   0  0  0  0  0  0  0  0  0  0  0  0
    2.0705   -5.7065   13.3668 C   0  0  0  0  0  0  0  0  0  0  0  0
    1.3558   -6.5779   12.6520 C   0  0  0  0  0  0  0  0  0  0  0  0
    0.1939   -6.1801   12.0714 C   0  0  0  0  0  0  0  0  0  0  0  0
    0.0767   -4.4055   12.5685 S   0  0  0  0  0  0  0  0  0  0  0  0
    0.6371   -0.3324    9.5753 C   0  0  0  0  0  0  0  0  0  0  0  0
   -0.2103    0.2631   10.2865 O   0  0  0  0  0  0  0  0  0  0  0  0
    0.5676   -0.2199    8.2125 N   0  0  0  0  0  0  0  0  0  0  0  0
   -0.4108    0.5906    7.6012 C   0  0  0  0  0  0  0  0  0  0  0  0
   -0.2546    2.0374    7.5608 C   0  0  0  0  0  0  0  0  0  0  0  0
   -0.0359    2.7627    8.6964 C   0  0  0  0  0  0  0  0  0  0  0  0
    0.1336    4.1425    8.5794 C   0  0  0  0  0  0  0  0  0  0  0  0
    0.0884    4.7833    7.3717 C   0  0  0  0  0  0  0  0  0  0  0  0
   -0.1344    4.0202    6.2431 C   0  0  0  0  0  0  0  0  0  0  0  0
   -0.3005    2.6700    6.3543 C   0  0  0  0  0  0  0  0  0  0  0  0
    0.2727    6.2229    7.1857 C   0  0  0  0  0  0  0  0  0  0  0  0
    1.4716    6.7581    7.5921 C   0  0  0  0  0  0  0  0  0  0  0  0
    1.6887    8.1068    7.4252 C   0  0  0  0  0  0  0  0  0  0  0  0
    0.7512    8.9263    6.8699 C   0  0  0  0  0  0  0  0  0  0  0  0
   -0.4357    8.3723    6.4720 C   0  0  0  0  0  0  0  0  0  0  0  0
   -0.6981    7.0150    6.6214 C   0  0  0  0  0  0  0  0  0  0  0  0
   -1.9807    6.4600    6.1806 C   0  0  0  0  0  0  0  0  0  0  0  0
   -2.4307    6.4539    4.9308 N   0  0  0  0  0  0  0  0  0  0  0  0
   -3.6104    5.8793    4.9481 N   0  0  0  0  0  0  0  0  0  0  0  0
   -3.8993    5.5262    6.2017 N   0  0  0  0  0  0  0  0  0  0  0  0
   -2.8835    5.8892    6.9629 N   0  0  0  0  0  0  0  0  0  0  0  0
  1  2  1  0
  2  3  1  0
  3  4  2  0
  4  5  1  0
  5  6  2  0
  6  7  1  0
  7  8  2  0
  8  9  1  0
  9 10  2  0
  8 11  1  0
 11 12  1  0
 12 13  1  0
 13 14  2  0
 14 15  1  0
 15 16  2  0
 16 17  1  0
 17 18  2  0
 11 19  1  0
 19 20  2  0
 19 21  1  0
 21 22  2  0
 22 23  1  0
 23 24  2  0
 24 25  1  0
  6 26  1  0
 26 27  2  0
 26 28  1  0
 28 29  1  0
 29 30  1  0
 30 31  2  0
 31 32  1  0
 32 33  2  0
 33 34  1  0
 34 35  2  0
 33 36  1  0
 36 37  2  0
 37 38  1  0
 38 39  2  0
 39 40  1  0
 40 41  2  0
 41 42  1  0
 42 43  2  0
 43 44  1  0
 44 45  1  0
 45 46  2  0
 28  3  1  0
 10  5  1  0
 18 13  1  0
 25 21  1  0
 35 30  1  0
 41 36  1  0
 46 42  1  0
M  END
$$$$
