
     RDKit          3D

 46 52  0  0  0  0  0  0  0  0999 V2000
    2.1597   -1.5767    4.3916 C   0  0  0  0  0  0  0  0  0  0  0  0
    0.8160   -1.8477    5.0777 C   0  0  0  0  0  0  0  0  0  0  0  0
    1.0254   -1.5998    6.5099 C   0  0  0  0  0  0  0  0  0  0  0  0
    1.9598   -2.4166    7.1050 N   0  0  0  0  0  0  0  0  0  0  0  0
    2.2823   -2.3280    8.3903 C   0  0  0  0  0  0  0  0  0  0  0  0
    1.6260   -1.3616    9.1166 C   0  0  0  0  0  0  0  0  0  0  0  0
    1.9332   -1.2587   10.4476 C   0  0  0  0  0  0  0  0  0  0  0  0
    2.8686   -2.0936   11.0390 C   0  0  0  0  0  0  0  0  0  0  0  0
    3.5259   -3.0658   10.2865 C   0  0  0  0  0  0  0  0  0  0  0  0
    3.2170   -3.1747    8.9362 C   0  0  0  0  0  0  0  0  0  0  0  0
    3.1663   -2.0337   12.4207 N   0  0  0  0  0  0  0  0  0  0  0  0
    4.3229   -1.2598   12.8047 C   0  0  0  0  0  0  0  0  0  0  0  0
    3.9669    0.1654   12.6306 C   0  0  0  0  0  0  0  0  0  0  0  0
    2.7399    0.6146   13.0300 C   0  0  0  0  0  0  0  0  0  0  0  0
    2.3862    1.9494   12.8774 C   0  0  0  0  0  0  0  0  0  0  0  0
    3.2814    2.8440   12.3144 C   0  0  0  0  0  0  0  0  0  0  0  0
    4.5075    2.4017   11.9135 C   0  0  0  0  0  0  0  0  0  0  0  0
    4.8547    1.0802   12.0661 C   0  0  0  0  0  0  0  0  0  0  0  0
    2.3958   -2.7017   13.3650 C   0  0  0  0  0  0  0  0  0  0  0  0
    2.6451   -2.4626   14.6075 O   0  0  0  0  0  0  0  0  0  0  0  0
    1.3391   -3.6431   13.0776 C   0  0  0  0  0  0  0  0  0  0  0  0
    0.0552   -3.5418   12.6937 C   0  0  0  0  0  0  0  0  0  0  0  0
   -0.7018   -4.6265   12.5160 C   0  0  0  0  0  0  0  0  0  0  0  0
   -0.1712   -5.8596   12.7245 C   0  0  0  0  0  0  0  0  0  0  0  0
    1.5657   -5.4770   13.2213 S   0  0  0  0  0  0  0  0  0  0  0  0
    0.6862   -0.5417    8.5043 C   0  0  0  0  0  0  0  0  0  0  0  0
    0.1118    0.3317    9.2011 O   0  0  0  0  0  0  0  0  0  0  0  0
    0.3722   -0.6543    7.1763 N   0  0  0  0  0  0  0  0  0  0  0  0
   -0.5497    0.2250    6.5725 C   0  0  0  0  0  0  0  0  0  0  0  0
   -0.4346    1.6637    6.7623 C   0  0  0  0  0  0  0  0  0  0  0  0
   -1.5314    2.4761    6.7367 C   0  0  0  0  0  0  0  0  0  0  0  0
   -1.3499    3.8420    6.9552 C   0  0  0  0  0  0  0  0  0  0  0  0
   -0.1173    4.3854    7.1929 C   0  0  0  0  0  0  0  0  0  0  0  0
    0.9707    3.5359    7.2122 C   0  0  0  0  0  0  0  0  0  0  0  0
    0.7964    2.1991    6.9989 C   0  0  0  0  0  0  0  0  0  0  0  0
    0.1325    5.8053    7.4424 C   0  0  0  0  0  0  0  0  0  0  0  0
   -0.1272    6.6770    6.4121 C   0  0  0  0  0  0  0  0  0  0  0  0
    0.0849    8.0224    6.6094 C   0  0  0  0  0  0  0  0  0  0  0  0
    0.5443    8.5152    7.7947 C   0  0  0  0  0  0  0  0  0  0  0  0
    0.7962    7.6294    8.8075 C   0  0  0  0  0  0  0  0  0  0  0  0
    0.5964    6.2621    8.6526 C   0  0  0  0  0  0  0  0  0  0  0  0
    0.8759    5.3466    9.7622 C   0  0  0  0  0  0  0  0  0  0  0  0
    0.0222    4.4638   10.2687 N   0  0  0  0  0  0  0  0  0  0  0  0
    0.6414    3.8450   11.2462 N   0  0  0  0  0  0  0  0  0  0  0  0
    1.8772    4.3362   11.3527 N   0  0  0  0  0  0  0  0  0  0  0  0
    2.0174    5.2684   10.4284 N   0  0  0  0  0  0  0  0  0  0  0  0
  1  2  1  0
  2  3  1  0
  3  4  2  0
  4  5  1  0
  5  6  2  0
  6  7  1  0
  7  8  2  0
  8  9  1  0
  9 10  2  0
  8 11  1  0
 11 12  1  0
 12 13  1  0
 13 14  2  0
 14 15  1  0
 15 16  2  0
 16 17  1  0
 17 18  2  0
 11 19  1  0
 19 20  2  0
 19 21  1  0
 21 22  2  0
 22 23  1  0
 23 24  2  0
 24 25  1  0
  6 26  1  0
 26 27  2  0
 26 28  1  0
 28 29  1  0
 29 30  1  0
 30 31  2  0
 31 32  1  0
 32 33  2  0
 33 34  1  0
 34 35  2  0
 33 36  1  0
 36 37  2  0
 37 38  1  0
 38 39  2  0
 39 40  1  0
 40 41  2  0
 41 42  1  0
 42 43  2  0
 43 44  1  0
 44 45  1  0
 45 46  2  0
 28  3  1  0
 10  5  1  0
 18 13  1  0
 25 21  1  0
 35 30  1  0
 41 36  1  0
 46 42  1  0
M  END
$$$$
