
     RDKit          3D

 46 52  0  0  0  0  0  0  0  0999 V2000
    1.9926   -2.8300    4.6001 C   0  0  0  0  0  0  0  0  0  0  0  0
    1.4803   -1.4050    4.8377 C   0  0  0  0  0  0  0  0  0  0  0  0
    1.3321   -1.2557    6.2911 C   0  0  0  0  0  0  0  0  0  0  0  0
    2.1005   -2.1179    7.0397 N   0  0  0  0  0  0  0  0  0  0  0  0
    2.0993   -2.1185    8.3678 C   0  0  0  0  0  0  0  0  0  0  0  0
    1.2772   -1.1981    8.9754 C   0  0  0  0  0  0  0  0  0  0  0  0
    1.2498   -1.1873   10.3450 C   0  0  0  0  0  0  0  0  0  0  0  0
    2.0203   -2.0674   11.0892 C   0  0  0  0  0  0  0  0  0  0  0  0
    2.8497   -2.9918   10.4560 C   0  0  0  0  0  0  0  0  0  0  0  0
    2.8802   -3.0072    9.0669 C   0  0  0  0  0  0  0  0  0  0  0  0
    1.9717   -2.1029   12.5026 N   0  0  0  0  0  0  0  0  0  0  0  0
    1.0012   -2.9899   13.0987 C   0  0  0  0  0  0  0  0  0  0  0  0
    1.5439   -4.3616   12.9886 C   0  0  0  0  0  0  0  0  0  0  0  0
    2.8292   -4.6186   13.3744 C   0  0  0  0  0  0  0  0  0  0  0  0
    3.3577   -5.9000   13.2811 C   0  0  0  0  0  0  0  0  0  0  0  0
    2.5803   -6.9369   12.7921 C   0  0  0  0  0  0  0  0  0  0  0  0
    1.2967   -6.6867   12.4052 C   0  0  0  0  0  0  0  0  0  0  0  0
    0.7765   -5.4176   12.4990 C   0  0  0  0  0  0  0  0  0  0  0  0
    2.8039   -1.3098   13.2836 C   0  0  0  0  0  0  0  0  0  0  0  0
    2.7035   -1.4292   14.5636 O   0  0  0  0  0  0  0  0  0  0  0  0
    3.7724   -0.3603   12.7876 C   0  0  0  0  0  0  0  0  0  0  0  0
    4.5640   -0.2893   11.7039 C   0  0  0  0  0  0  0  0  0  0  0  0
    5.3936    0.7396   11.5189 C   0  0  0  0  0  0  0  0  0  0  0  0
    5.4438    1.7380   12.4388 C   0  0  0  0  0  0  0  0  0  0  0  0
    4.2080    1.1939   13.6985 S   0  0  0  0  0  0  0  0  0  0  0  0
    0.5077   -0.3316    8.2091 C   0  0  0  0  0  0  0  0  0  0  0  0
   -0.2270    0.4974    8.8019 O   0  0  0  0  0  0  0  0  0  0  0  0
    0.5278   -0.3521    6.8401 N   0  0  0  0  0  0  0  0  0  0  0  0
   -0.2269    0.5730    6.0902 C   0  0  0  0  0  0  0  0  0  0  0  0
   -0.1199    2.0011    6.3515 C   0  0  0  0  0  0  0  0  0  0  0  0
   -1.2220    2.8065    6.3723 C   0  0  0  0  0  0  0  0  0  0  0  0
   -1.0479    4.1608    6.6582 C   0  0  0  0  0  0  0  0  0  0  0  0
    0.1826    4.6997    6.9168 C   0  0  0  0  0  0  0  0  0  0  0  0
    1.2760    3.8575    6.8878 C   0  0  0  0  0  0  0  0  0  0  0  0
    1.1090    2.5319    6.6085 C   0  0  0  0  0  0  0  0  0  0  0  0
    0.4247    6.1069    7.2361 C   0  0  0  0  0  0  0  0  0  0  0  0
    0.1088    7.0314    6.2694 C   0  0  0  0  0  0  0  0  0  0  0  0
    0.3120    8.3665    6.5339 C   0  0  0  0  0  0  0  0  0  0  0  0
    0.8166    8.7986    7.7246 C   0  0  0  0  0  0  0  0  0  0  0  0
    1.1241    7.8609    8.6733 C   0  0  0  0  0  0  0  0  0  0  0  0
    0.9353    6.5016    8.4492 C   0  0  0  0  0  0  0  0  0  0  0  0
    1.2751    5.5292    9.4916 C   0  0  0  0  0  0  0  0  0  0  0  0
    0.4341    4.6590   10.0394 N   0  0  0  0  0  0  0  0  0  0  0  0
    1.1125    3.9754   10.9308 N   0  0  0  0  0  0  0  0  0  0  0  0
    2.3725    4.4137   10.9424 N   0  0  0  0  0  0  0  0  0  0  0  0
    2.4677    5.3787   10.0464 N   0  0  0  0  0  0  0  0  0  0  0  0
  1  2  1  0
  2  3  1  0
  3  4  2  0
  4  5  1  0
  5  6  2  0
  6  7  1  0
  7  8  2  0
  8  9  1  0
  9 10  2  0
  8 11  1  0
 11 12  1  0
 12 13  1  0
 13 14  2  0
 14 15  1  0
 15 16  2  0
 16 17  1  0
 17 18  2  0
 11 19  1  0
 19 20  2  0
 19 21  1  0
 21 22  2  0
 22 23  1  0
 23 24  2  0
 24 25  1  0
  6 26  1  0
 26 27  2  0
 26 28  1  0
 28 29  1  0
 29 30  1  0
 30 31  2  0
 31 32  1  0
 32 33  2  0
 33 34  1  0
 34 35  2  0
 33 36  1  0
 36 37  2  0
 37 38  1  0
 38 39  2  0
 39 40  1  0
 40 41  2  0
 41 42  1  0
 42 43  2  0
 43 44  1  0
 44 45  1  0
 45 46  2  0
 28  3  1  0
 10  5  1  0
 18 13  1  0
 25 21  1  0
 35 30  1  0
 41 36  1  0
 46 42  1  0
M  END
$$$$
