
     RDKit          3D

 46 52  0  0  0  0  0  0  0  0999 V2000
    3.5271   -0.0732    4.7914 C   0  0  0  0  0  0  0  0  0  0  0  0
    2.0900   -0.5834    4.9467 C   0  0  0  0  0  0  0  0  0  0  0  0
    1.8029   -0.5791    6.3869 C   0  0  0  0  0  0  0  0  0  0  0  0
    2.6843   -1.3086    7.1519 N   0  0  0  0  0  0  0  0  0  0  0  0
    2.5827   -1.4091    8.4723 C   0  0  0  0  0  0  0  0  0  0  0  0
    1.5335   -0.7364    9.0542 C   0  0  0  0  0  0  0  0  0  0  0  0
    1.4008   -0.8346   10.4141 C   0  0  0  0  0  0  0  0  0  0  0  0
    2.2885   -1.5806   11.1738 C   0  0  0  0  0  0  0  0  0  0  0  0
    3.3478   -2.2537   10.5669 C   0  0  0  0  0  0  0  0  0  0  0  0
    3.4860   -2.1578    9.1876 C   0  0  0  0  0  0  0  0  0  0  0  0
    2.1422   -1.7317   12.5728 N   0  0  0  0  0  0  0  0  0  0  0  0
    2.5242   -0.6067   13.3927 C   0  0  0  0  0  0  0  0  0  0  0  0
    3.9939   -0.6654   13.5503 C   0  0  0  0  0  0  0  0  0  0  0  0
    4.8023   -0.5159   12.4590 C   0  0  0  0  0  0  0  0  0  0  0  0
    6.1849   -0.5657   12.5851 C   0  0  0  0  0  0  0  0  0  0  0  0
    6.7609   -0.7692   13.8282 C   0  0  0  0  0  0  0  0  0  0  0  0
    5.9594   -0.9194   14.9213 C   0  0  0  0  0  0  0  0  0  0  0  0
    4.5915   -0.8693   14.7932 C   0  0  0  0  0  0  0  0  0  0  0  0
    1.6712   -2.9117   13.1362 C   0  0  0  0  0  0  0  0  0  0  0  0
    1.4914   -2.9264   14.4130 O   0  0  0  0  0  0  0  0  0  0  0  0
    1.3660   -4.1262   12.4169 C   0  0  0  0  0  0  0  0  0  0  0  0
    1.4110   -4.5034   11.1278 C   0  0  0  0  0  0  0  0  0  0  0  0
    1.0400   -5.7291   10.7519 C   0  0  0  0  0  0  0  0  0  0  0  0
    0.6084   -6.6177   11.6844 C   0  0  0  0  0  0  0  0  0  0  0  0
    0.7284   -5.6520   13.2538 S   0  0  0  0  0  0  0  0  0  0  0  0
    0.6513   -0.0017    8.2717 C   0  0  0  0  0  0  0  0  0  0  0  0
   -0.2916    0.6021    8.8416 O   0  0  0  0  0  0  0  0  0  0  0  0
    0.7791    0.0854    6.9112 N   0  0  0  0  0  0  0  0  0  0  0  0
   -0.1030    0.8791    6.1497 C   0  0  0  0  0  0  0  0  0  0  0  0
   -0.2684    2.2948    6.4454 C   0  0  0  0  0  0  0  0  0  0  0  0
   -0.9374    3.1273    5.5950 C   0  0  0  0  0  0  0  0  0  0  0  0
   -1.0828    4.4668    5.9565 C   0  0  0  0  0  0  0  0  0  0  0  0
   -0.5804    4.9653    7.1272 C   0  0  0  0  0  0  0  0  0  0  0  0
    0.0906    4.0967    7.9643 C   0  0  0  0  0  0  0  0  0  0  0  0
    0.2344    2.7854    7.6135 C   0  0  0  0  0  0  0  0  0  0  0  0
   -0.7138    6.3549    7.5654 C   0  0  0  0  0  0  0  0  0  0  0  0
   -1.9388    6.9523    7.3886 C   0  0  0  0  0  0  0  0  0  0  0  0
   -2.1088    8.2554    7.7968 C   0  0  0  0  0  0  0  0  0  0  0  0
   -1.0994    8.9703    8.3705 C   0  0  0  0  0  0  0  0  0  0  0  0
    0.1124    8.3559    8.5374 C   0  0  0  0  0  0  0  0  0  0  0  0
    0.3291    7.0412    8.1397 C   0  0  0  0  0  0  0  0  0  0  0  0
    1.6408    6.4186    8.3378 C   0  0  0  0  0  0  0  0  0  0  0  0
    2.4322    5.9618    7.3736 N   0  0  0  0  0  0  0  0  0  0  0  0
    3.5047    5.4755    7.9526 N   0  0  0  0  0  0  0  0  0  0  0  0
    3.3876    5.6265    9.2729 N   0  0  0  0  0  0  0  0  0  0  0  0
    2.2281    6.2129    9.5064 N   0  0  0  0  0  0  0  0  0  0  0  0
  1  2  1  0
  2  3  1  0
  3  4  2  0
  4  5  1  0
  5  6  2  0
  6  7  1  0
  7  8  2  0
  8  9  1  0
  9 10  2  0
  8 11  1  0
 11 12  1  0
 12 13  1  0
 13 14  2  0
 14 15  1  0
 15 16  2  0
 16 17  1  0
 17 18  2  0
 11 19  1  0
 19 20  2  0
 19 21  1  0
 21 22  2  0
 22 23  1  0
 23 24  2  0
 24 25  1  0
  6 26  1  0
 26 27  2  0
 26 28  1  0
 28 29  1  0
 29 30  1  0
 30 31  2  0
 31 32  1  0
 32 33  2  0
 33 34  1  0
 34 35  2  0
 33 36  1  0
 36 37  2  0
 37 38  1  0
 38 39  2  0
 39 40  1  0
 40 41  2  0
 41 42  1  0
 42 43  2  0
 43 44  1  0
 44 45  1  0
 45 46  2  0
 28  3  1  0
 10  5  1  0
 18 13  1  0
 25 21  1  0
 35 30  1  0
 41 36  1  0
 46 42  1  0
M  END
$$$$
