
     RDKit          3D

 46 52  0  0  0  0  0  0  0  0999 V2000
    0.4225    1.3904   14.7883 C   0  0  0  0  0  0  0  0  0  0  0  0
    0.2287    1.8123   13.3275 C   0  0  0  0  0  0  0  0  0  0  0  0
    0.9174    0.8044   12.5110 C   0  0  0  0  0  0  0  0  0  0  0  0
    0.4275   -0.4751   12.6417 N   0  0  0  0  0  0  0  0  0  0  0  0
    0.9234   -1.5100   11.9732 C   0  0  0  0  0  0  0  0  0  0  0  0
    1.9722   -1.2398   11.1252 C   0  0  0  0  0  0  0  0  0  0  0  0
    2.5086   -2.2935   10.4334 C   0  0  0  0  0  0  0  0  0  0  0  0
    2.0139   -3.5802   10.5805 C   0  0  0  0  0  0  0  0  0  0  0  0
    0.9485   -3.8347   11.4428 C   0  0  0  0  0  0  0  0  0  0  0  0
    0.4017   -2.7693   12.1474 C   0  0  0  0  0  0  0  0  0  0  0  0
    2.5831   -4.6883    9.9102 N   0  0  0  0  0  0  0  0  0  0  0  0
    1.7359   -5.3888    8.9745 C   0  0  0  0  0  0  0  0  0  0  0  0
    1.8526   -4.6881    7.6769 C   0  0  0  0  0  0  0  0  0  0  0  0
    2.7979   -5.0825    6.7727 C   0  0  0  0  0  0  0  0  0  0  0  0
    2.9232   -4.4394    5.5475 C   0  0  0  0  0  0  0  0  0  0  0  0
    2.0842   -3.3842    5.2293 C   0  0  0  0  0  0  0  0  0  0  0  0
    1.1388   -2.9857    6.1278 C   0  0  0  0  0  0  0  0  0  0  0  0
    1.0172   -3.6243    7.3392 C   0  0  0  0  0  0  0  0  0  0  0  0
    3.8890   -5.0979   10.1516 C   0  0  0  0  0  0  0  0  0  0  0  0
    4.3336   -6.0928    9.4620 O   0  0  0  0  0  0  0  0  0  0  0  0
    4.7942   -4.5075   11.1096 C   0  0  0  0  0  0  0  0  0  0  0  0
    4.6854   -4.0737   12.3769 C   0  0  0  0  0  0  0  0  0  0  0  0
    5.7286   -3.5443   13.0192 C   0  0  0  0  0  0  0  0  0  0  0  0
    6.9263   -3.4393   12.3868 C   0  0  0  0  0  0  0  0  0  0  0  0
    6.5708   -4.1507   10.7202 S   0  0  0  0  0  0  0  0  0  0  0  0
    2.4569    0.0563   11.0002 C   0  0  0  0  0  0  0  0  0  0  0  0
    3.4131    0.2626   10.2120 O   0  0  0  0  0  0  0  0  0  0  0  0
    1.9268    1.1059   11.7017 N   0  0  0  0  0  0  0  0  0  0  0  0
    2.4078    2.4182   11.5163 C   0  0  0  0  0  0  0  0  0  0  0  0
    1.8978    3.2482   10.4346 C   0  0  0  0  0  0  0  0  0  0  0  0
    2.4341    4.4737   10.1627 C   0  0  0  0  0  0  0  0  0  0  0  0
    1.9144    5.2022    9.0924 C   0  0  0  0  0  0  0  0  0  0  0  0
    0.8939    4.7284    8.3144 C   0  0  0  0  0  0  0  0  0  0  0  0
    0.3744    3.4855    8.6164 C   0  0  0  0  0  0  0  0  0  0  0  0
    0.8808    2.7703    9.6629 C   0  0  0  0  0  0  0  0  0  0  0  0
    0.3184    5.4394    7.1725 C   0  0  0  0  0  0  0  0  0  0  0  0
    0.2631    4.7632    5.9773 C   0  0  0  0  0  0  0  0  0  0  0  0
   -0.2804    5.3931    4.8810 C   0  0  0  0  0  0  0  0  0  0  0  0
   -0.7646    6.6660    4.9455 C   0  0  0  0  0  0  0  0  0  0  0  0
   -0.6998    7.3210    6.1458 C   0  0  0  0  0  0  0  0  0  0  0  0
   -0.1591    6.7236    7.2790 C   0  0  0  0  0  0  0  0  0  0  0  0
   -0.1100    7.4578    8.5462 C   0  0  0  0  0  0  0  0  0  0  0  0
   -0.6146    7.0389    9.7014 N   0  0  0  0  0  0  0  0  0  0  0  0
   -0.3758    7.9753   10.5892 N   0  0  0  0  0  0  0  0  0  0  0  0
    0.2755    8.9764    9.9949 N   0  0  0  0  0  0  0  0  0  0  0  0
    0.4381    8.6495    8.7261 N   0  0  0  0  0  0  0  0  0  0  0  0
  1  2  1  0
  2  3  1  0
  3  4  2  0
  4  5  1  0
  5  6  2  0
  6  7  1  0
  7  8  2  0
  8  9  1  0
  9 10  2  0
  8 11  1  0
 11 12  1  0
 12 13  1  0
 13 14  2  0
 14 15  1  0
 15 16  2  0
 16 17  1  0
 17 18  2  0
 11 19  1  0
 19 20  2  0
 19 21  1  0
 21 22  2  0
 22 23  1  0
 23 24  2  0
 24 25  1  0
  6 26  1  0
 26 27  2  0
 26 28  1  0
 28 29  1  0
 29 30  1  0
 30 31  2  0
 31 32  1  0
 32 33  2  0
 33 34  1  0
 34 35  2  0
 33 36  1  0
 36 37  2  0
 37 38  1  0
 38 39  2  0
 39 40  1  0
 40 41  2  0
 41 42  1  0
 42 43  2  0
 43 44  1  0
 44 45  1  0
 45 46  2  0
 28  3  1  0
 10  5  1  0
 18 13  1  0
 25 21  1  0
 35 30  1  0
 41 36  1  0
 46 42  1  0
M  END
$$$$
