
     RDKit          3D

 46 52  0  0  0  0  0  0  0  0999 V2000
    1.2270   -2.6012    4.5471 C   0  0  0  0  0  0  0  0  0  0  0  0
    1.8324   -1.2575    4.9683 C   0  0  0  0  0  0  0  0  0  0  0  0
    1.8499   -1.2538    6.4367 C   0  0  0  0  0  0  0  0  0  0  0  0
    2.7645   -2.1117    7.0038 N   0  0  0  0  0  0  0  0  0  0  0  0
    2.9235   -2.2329    8.3168 C   0  0  0  0  0  0  0  0  0  0  0  0
    2.1148   -1.4448    9.1023 C   0  0  0  0  0  0  0  0  0  0  0  0
    2.2519   -1.5607   10.4604 C   0  0  0  0  0  0  0  0  0  0  0  0
    3.1694   -2.4357   11.0210 C   0  0  0  0  0  0  0  0  0  0  0  0
    3.9826   -3.2249   10.2090 C   0  0  0  0  0  0  0  0  0  0  0  0
    3.8465   -3.1115    8.8308 C   0  0  0  0  0  0  0  0  0  0  0  0
    3.2944   -2.6033   12.4202 N   0  0  0  0  0  0  0  0  0  0  0  0
    3.1254   -3.9419   12.9334 C   0  0  0  0  0  0  0  0  0  0  0  0
    1.6998   -4.2958   12.7577 C   0  0  0  0  0  0  0  0  0  0  0  0
    0.7457   -3.3187   12.7979 C   0  0  0  0  0  0  0  0  0  0  0  0
   -0.5985   -3.6291   12.6332 C   0  0  0  0  0  0  0  0  0  0  0  0
   -0.9864   -4.9424   12.4253 C   0  0  0  0  0  0  0  0  0  0  0  0
   -0.0388   -5.9222   12.3844 C   0  0  0  0  0  0  0  0  0  0  0  0
    1.2905   -5.6118   12.5474 C   0  0  0  0  0  0  0  0  0  0  0  0
    3.5490   -1.5302   13.2659 C   0  0  0  0  0  0  0  0  0  0  0  0
    3.4262   -1.7344   14.5332 O   0  0  0  0  0  0  0  0  0  0  0  0
    3.9386   -0.2032   12.8502 C   0  0  0  0  0  0  0  0  0  0  0  0
    3.3163    0.8246   12.2483 C   0  0  0  0  0  0  0  0  0  0  0  0
    3.9630    1.9584   11.9702 C   0  0  0  0  0  0  0  0  0  0  0  0
    5.2750    2.0835   12.2996 C   0  0  0  0  0  0  0  0  0  0  0  0
    5.6566    0.4536   13.0793 S   0  0  0  0  0  0  0  0  0  0  0  0
    1.1965   -0.5811    8.5183 C   0  0  0  0  0  0  0  0  0  0  0  0
    0.4793    0.1251    9.2701 O   0  0  0  0  0  0  0  0  0  0  0  0
    1.0530   -0.4756    7.1606 N   0  0  0  0  0  0  0  0  0  0  0  0
    0.1470    0.4460    6.5971 C   0  0  0  0  0  0  0  0  0  0  0  0
    0.3159    1.8760    6.8108 C   0  0  0  0  0  0  0  0  0  0  0  0
    1.5520    2.4553    6.8136 C   0  0  0  0  0  0  0  0  0  0  0  0
    1.6368    3.8358    6.9956 C   0  0  0  0  0  0  0  0  0  0  0  0
    0.5282    4.6184    7.1684 C   0  0  0  0  0  0  0  0  0  0  0  0
   -0.7064    4.0010    7.1602 C   0  0  0  0  0  0  0  0  0  0  0  0
   -0.7927    2.6504    6.9823 C   0  0  0  0  0  0  0  0  0  0  0  0
    0.5540    6.0701    7.3492 C   0  0  0  0  0  0  0  0  0  0  0  0
    0.9288    6.8292    6.2665 C   0  0  0  0  0  0  0  0  0  0  0  0
    0.9562    8.1994    6.3920 C   0  0  0  0  0  0  0  0  0  0  0  0
    0.6233    8.8250    7.5568 C   0  0  0  0  0  0  0  0  0  0  0  0
    0.2528    8.0498    8.6225 C   0  0  0  0  0  0  0  0  0  0  0  0
    0.2109    6.6623    8.5408 C   0  0  0  0  0  0  0  0  0  0  0  0
   -0.1932    5.8680    9.7040 C   0  0  0  0  0  0  0  0  0  0  0  0
    0.5920    5.0403   10.3843 N   0  0  0  0  0  0  0  0  0  0  0  0
   -0.1365    4.5168   11.3421 N   0  0  0  0  0  0  0  0  0  0  0  0
   -1.3723    5.0135   11.2638 N   0  0  0  0  0  0  0  0  0  0  0  0
   -1.4017    5.8523   10.2447 N   0  0  0  0  0  0  0  0  0  0  0  0
  1  2  1  0
  2  3  1  0
  3  4  2  0
  4  5  1  0
  5  6  2  0
  6  7  1  0
  7  8  2  0
  8  9  1  0
  9 10  2  0
  8 11  1  0
 11 12  1  0
 12 13  1  0
 13 14  2  0
 14 15  1  0
 15 16  2  0
 16 17  1  0
 17 18  2  0
 11 19  1  0
 19 20  2  0
 19 21  1  0
 21 22  2  0
 22 23  1  0
 23 24  2  0
 24 25  1  0
  6 26  1  0
 26 27  2  0
 26 28  1  0
 28 29  1  0
 29 30  1  0
 30 31  2  0
 31 32  1  0
 32 33  2  0
 33 34  1  0
 34 35  2  0
 33 36  1  0
 36 37  2  0
 37 38  1  0
 38 39  2  0
 39 40  1  0
 40 41  2  0
 41 42  1  0
 42 43  2  0
 43 44  1  0
 44 45  1  0
 45 46  2  0
 28  3  1  0
 10  5  1  0
 18 13  1  0
 25 21  1  0
 35 30  1  0
 41 36  1  0
 46 42  1  0
M  END
$$$$
