
     RDKit          3D

 46 52  0  0  0  0  0  0  0  0999 V2000
    0.7789   -2.9901    4.5321 C   0  0  0  0  0  0  0  0  0  0  0  0
    1.4276   -1.6310    4.8174 C   0  0  0  0  0  0  0  0  0  0  0  0
    1.5566   -1.5323    6.2769 C   0  0  0  0  0  0  0  0  0  0  0  0
    2.5570   -2.3058    6.8201 N   0  0  0  0  0  0  0  0  0  0  0  0
    2.8217   -2.3345    8.1213 C   0  0  0  0  0  0  0  0  0  0  0  0
    2.0335   -1.5387    8.9197 C   0  0  0  0  0  0  0  0  0  0  0  0
    2.2797   -1.5604   10.2672 C   0  0  0  0  0  0  0  0  0  0  0  0
    3.2834   -2.3512   10.8047 C   0  0  0  0  0  0  0  0  0  0  0  0
    4.0741   -3.1496    9.9796 C   0  0  0  0  0  0  0  0  0  0  0  0
    3.8276   -3.1316    8.6123 C   0  0  0  0  0  0  0  0  0  0  0  0
    3.5233   -2.4224   12.1971 N   0  0  0  0  0  0  0  0  0  0  0  0
    4.5702   -1.5780   12.7215 C   0  0  0  0  0  0  0  0  0  0  0  0
    4.0706   -0.1866   12.6691 C   0  0  0  0  0  0  0  0  0  0  0  0
    2.7594    0.0554   12.3711 C   0  0  0  0  0  0  0  0  0  0  0  0
    2.2692    1.3543   12.3186 C   0  0  0  0  0  0  0  0  0  0  0  0
    3.1124    2.4242   12.5698 C   0  0  0  0  0  0  0  0  0  0  0  0
    4.4223    2.1892   12.8675 C   0  0  0  0  0  0  0  0  0  0  0  0
    4.9042    0.9027   12.9189 C   0  0  0  0  0  0  0  0  0  0  0  0
    2.8007   -3.2766   13.0215 C   0  0  0  0  0  0  0  0  0  0  0  0
    2.9370   -3.1247   14.2948 O   0  0  0  0  0  0  0  0  0  0  0  0
    1.9096   -4.3228   12.5777 C   0  0  0  0  0  0  0  0  0  0  0  0
    1.1285   -4.5116   11.5005 C   0  0  0  0  0  0  0  0  0  0  0  0
    0.3814   -5.6098   11.3712 C   0  0  0  0  0  0  0  0  0  0  0  0
    0.4062   -6.5594   12.3423 C   0  0  0  0  0  0  0  0  0  0  0  0
    1.5932   -5.8561   13.5696 S   0  0  0  0  0  0  0  0  0  0  0  0
    1.0279   -0.7607    8.3595 C   0  0  0  0  0  0  0  0  0  0  0  0
    0.3327   -0.0442    9.1222 O   0  0  0  0  0  0  0  0  0  0  0  0
    0.7759   -0.7497    7.0137 N   0  0  0  0  0  0  0  0  0  0  0  0
   -0.2191    0.0879    6.4695 C   0  0  0  0  0  0  0  0  0  0  0  0
   -0.1411    1.5325    6.6313 C   0  0  0  0  0  0  0  0  0  0  0  0
   -1.2498    2.3223    6.5275 C   0  0  0  0  0  0  0  0  0  0  0  0
   -1.1057    3.6961    6.7232 C   0  0  0  0  0  0  0  0  0  0  0  0
    0.1019    4.2690    7.0142 C   0  0  0  0  0  0  0  0  0  0  0  0
    1.2028    3.4418    7.1120 C   0  0  0  0  0  0  0  0  0  0  0  0
    1.0651    2.0973    6.9212 C   0  0  0  0  0  0  0  0  0  0  0  0
    0.3114    5.6988    7.2433 C   0  0  0  0  0  0  0  0  0  0  0  0
    0.0225    6.5484    6.2024 C   0  0  0  0  0  0  0  0  0  0  0  0
    0.1963    7.9019    6.3805 C   0  0  0  0  0  0  0  0  0  0  0  0
    0.6460    8.4240    7.5570 C   0  0  0  0  0  0  0  0  0  0  0  0
    0.9275    7.5598    8.5806 C   0  0  0  0  0  0  0  0  0  0  0  0
    0.7668    6.1853    8.4451 C   0  0  0  0  0  0  0  0  0  0  0  0
    1.0771    5.2936    9.5658 C   0  0  0  0  0  0  0  0  0  0  0  0
    0.2448    4.4070   10.1005 N   0  0  0  0  0  0  0  0  0  0  0  0
    0.8883    3.8147   11.0789 N   0  0  0  0  0  0  0  0  0  0  0  0
    2.1179    4.3262   11.1577 N   0  0  0  0  0  0  0  0  0  0  0  0
    2.2297    5.2441   10.2154 N   0  0  0  0  0  0  0  0  0  0  0  0
  1  2  1  0
  2  3  1  0
  3  4  2  0
  4  5  1  0
  5  6  2  0
  6  7  1  0
  7  8  2  0
  8  9  1  0
  9 10  2  0
  8 11  1  0
 11 12  1  0
 12 13  1  0
 13 14  2  0
 14 15  1  0
 15 16  2  0
 16 17  1  0
 17 18  2  0
 11 19  1  0
 19 20  2  0
 19 21  1  0
 21 22  2  0
 22 23  1  0
 23 24  2  0
 24 25  1  0
  6 26  1  0
 26 27  2  0
 26 28  1  0
 28 29  1  0
 29 30  1  0
 30 31  2  0
 31 32  1  0
 32 33  2  0
 33 34  1  0
 34 35  2  0
 33 36  1  0
 36 37  2  0
 37 38  1  0
 38 39  2  0
 39 40  1  0
 40 41  2  0
 41 42  1  0
 42 43  2  0
 43 44  1  0
 44 45  1  0
 45 46  2  0
 28  3  1  0
 10  5  1  0
 18 13  1  0
 25 21  1  0
 35 30  1  0
 41 36  1  0
 46 42  1  0
M  END
$$$$
