
     RDKit          3D

 46 52  0  0  0  0  0  0  0  0999 V2000
    0.7317   -2.6139    5.2524 C   0  0  0  0  0  0  0  0  0  0  0  0
    1.6335   -1.3790    5.3587 C   0  0  0  0  0  0  0  0  0  0  0  0
    1.9326   -1.2069    6.7862 C   0  0  0  0  0  0  0  0  0  0  0  0
    1.8613   -2.3610    7.5326 N   0  0  0  0  0  0  0  0  0  0  0  0
    2.1082   -2.3937    8.8371 C   0  0  0  0  0  0  0  0  0  0  0  0
    2.4460   -1.1955    9.4221 C   0  0  0  0  0  0  0  0  0  0  0  0
    2.6938   -1.2016   10.7694 C   0  0  0  0  0  0  0  0  0  0  0  0
    2.6090   -2.3682   11.5135 C   0  0  0  0  0  0  0  0  0  0  0  0
    2.2677   -3.5741   10.9030 C   0  0  0  0  0  0  0  0  0  0  0  0
    2.0145   -3.5728    9.5367 C   0  0  0  0  0  0  0  0  0  0  0  0
    2.8163   -2.3871   12.9128 N   0  0  0  0  0  0  0  0  0  0  0  0
    1.6846   -2.7462   13.7339 C   0  0  0  0  0  0  0  0  0  0  0  0
    1.6089   -4.2236   13.7439 C   0  0  0  0  0  0  0  0  0  0  0  0
    0.3944   -4.8427   13.8356 C   0  0  0  0  0  0  0  0  0  0  0  0
    0.3008   -6.2288   13.8446 C   0  0  0  0  0  0  0  0  0  0  0  0
    1.4471   -7.0017   13.7602 C   0  0  0  0  0  0  0  0  0  0  0  0
    2.6624   -6.3897   13.6687 C   0  0  0  0  0  0  0  0  0  0  0  0
    2.7516   -5.0179   13.6597 C   0  0  0  0  0  0  0  0  0  0  0  0
    4.0439   -2.0582   13.4752 C   0  0  0  0  0  0  0  0  0  0  0  0
    4.1527   -2.1574   14.7563 O   0  0  0  0  0  0  0  0  0  0  0  0
    5.2109   -1.6127   12.7506 C   0  0  0  0  0  0  0  0  0  0  0  0
    5.7964   -1.9548   11.5903 C   0  0  0  0  0  0  0  0  0  0  0  0
    6.9136   -1.3543   11.1753 C   0  0  0  0  0  0  0  0  0  0  0  0
    7.4750   -0.3775   11.9344 C   0  0  0  0  0  0  0  0  0  0  0  0
    6.3323   -0.2788   13.3816 S   0  0  0  0  0  0  0  0  0  0  0  0
    2.5166   -0.0374    8.6579 C   0  0  0  0  0  0  0  0  0  0  0  0
    2.8329    1.0362    9.2287 O   0  0  0  0  0  0  0  0  0  0  0  0
    2.2570   -0.0316    7.3134 N   0  0  0  0  0  0  0  0  0  0  0  0
    2.3852    1.1504    6.5556 C   0  0  0  0  0  0  0  0  0  0  0  0
    1.5692    2.3171    6.8592 C   0  0  0  0  0  0  0  0  0  0  0  0
    0.7526    2.3510    7.9526 C   0  0  0  0  0  0  0  0  0  0  0  0
    0.0211    3.5133    8.1980 C   0  0  0  0  0  0  0  0  0  0  0  0
    0.0984    4.6096    7.3835 C   0  0  0  0  0  0  0  0  0  0  0  0
    0.9337    4.5422    6.2866 C   0  0  0  0  0  0  0  0  0  0  0  0
    1.6508    3.4065    6.0439 C   0  0  0  0  0  0  0  0  0  0  0  0
   -0.6326    5.8589    7.5976 C   0  0  0  0  0  0  0  0  0  0  0  0
    0.0169    7.0270    7.2771 C   0  0  0  0  0  0  0  0  0  0  0  0
   -0.6396    8.2234    7.4541 C   0  0  0  0  0  0  0  0  0  0  0  0
   -1.9131    8.2842    7.9373 C   0  0  0  0  0  0  0  0  0  0  0  0
   -2.5414    7.1088    8.2499 C   0  0  0  0  0  0  0  0  0  0  0  0
   -1.9164    5.8774    8.0873 C   0  0  0  0  0  0  0  0  0  0  0  0
   -2.6241    4.6412    8.4316 C   0  0  0  0  0  0  0  0  0  0  0  0
   -2.8448    3.6228    7.6078 N   0  0  0  0  0  0  0  0  0  0  0  0
   -3.5110    2.7167    8.2841 N   0  0  0  0  0  0  0  0  0  0  0  0
   -3.7072    3.1636    9.5257 N   0  0  0  0  0  0  0  0  0  0  0  0
   -3.1540    4.3593    9.6117 N   0  0  0  0  0  0  0  0  0  0  0  0
  1  2  1  0
  2  3  1  0
  3  4  2  0
  4  5  1  0
  5  6  2  0
  6  7  1  0
  7  8  2  0
  8  9  1  0
  9 10  2  0
  8 11  1  0
 11 12  1  0
 12 13  1  0
 13 14  2  0
 14 15  1  0
 15 16  2  0
 16 17  1  0
 17 18  2  0
 11 19  1  0
 19 20  2  0
 19 21  1  0
 21 22  2  0
 22 23  1  0
 23 24  2  0
 24 25  1  0
  6 26  1  0
 26 27  2  0
 26 28  1  0
 28 29  1  0
 29 30  1  0
 30 31  2  0
 31 32  1  0
 32 33  2  0
 33 34  1  0
 34 35  2  0
 33 36  1  0
 36 37  2  0
 37 38  1  0
 38 39  2  0
 39 40  1  0
 40 41  2  0
 41 42  1  0
 42 43  2  0
 43 44  1  0
 44 45  1  0
 45 46  2  0
 28  3  1  0
 10  5  1  0
 18 13  1  0
 25 21  1  0
 35 30  1  0
 41 36  1  0
 46 42  1  0
M  END
$$$$
