
     RDKit          3D

 46 52  0  0  0  0  0  0  0  0999 V2000
    1.6567   -2.5577    5.2567 C   0  0  0  0  0  0  0  0  0  0  0  0
    2.1516   -1.1721    5.6865 C   0  0  0  0  0  0  0  0  0  0  0  0
    2.2502   -1.2040    7.1513 C   0  0  0  0  0  0  0  0  0  0  0  0
    2.2765   -2.4663    7.6992 N   0  0  0  0  0  0  0  0  0  0  0  0
    2.3710   -2.6846    9.0058 C   0  0  0  0  0  0  0  0  0  0  0  0
    2.4430   -1.5674    9.8051 C   0  0  0  0  0  0  0  0  0  0  0  0
    2.5291   -1.7668   11.1577 C   0  0  0  0  0  0  0  0  0  0  0  0
    2.5444   -3.0428   11.6995 C   0  0  0  0  0  0  0  0  0  0  0  0
    2.4732   -4.1636   10.8736 C   0  0  0  0  0  0  0  0  0  0  0  0
    2.3848   -3.9663    9.5010 C   0  0  0  0  0  0  0  0  0  0  0  0
    2.5867   -3.2690   13.0954 N   0  0  0  0  0  0  0  0  0  0  0  0
    1.6505   -4.2302   13.6280 C   0  0  0  0  0  0  0  0  0  0  0  0
    0.2968   -3.6627   13.4448 C   0  0  0  0  0  0  0  0  0  0  0  0
   -0.6204   -4.3233   12.6771 C   0  0  0  0  0  0  0  0  0  0  0  0
   -1.8979   -3.8089   12.4938 C   0  0  0  0  0  0  0  0  0  0  0  0
   -2.2560   -2.6121   13.0922 C   0  0  0  0  0  0  0  0  0  0  0  0
   -1.3449   -1.9479   13.8593 C   0  0  0  0  0  0  0  0  0  0  0  0
   -0.0817   -2.4597   14.0391 C   0  0  0  0  0  0  0  0  0  0  0  0
    3.4729   -2.5871   13.9208 C   0  0  0  0  0  0  0  0  0  0  0  0
    3.2635   -2.6486   15.1917 O   0  0  0  0  0  0  0  0  0  0  0  0
    4.6095   -1.8128   13.4802 C   0  0  0  0  0  0  0  0  0  0  0  0
    4.9513   -0.5140   13.5311 C   0  0  0  0  0  0  0  0  0  0  0  0
    6.0995   -0.0794   13.0080 C   0  0  0  0  0  0  0  0  0  0  0  0
    6.9442   -0.9607   12.4118 C   0  0  0  0  0  0  0  0  0  0  0  0
    6.0522   -2.5672   12.5944 S   0  0  0  0  0  0  0  0  0  0  0  0
    2.4174   -0.2983    9.2403 C   0  0  0  0  0  0  0  0  0  0  0  0
    2.4898    0.6966   10.0041 O   0  0  0  0  0  0  0  0  0  0  0  0
    2.3194   -0.1013    7.8888 N   0  0  0  0  0  0  0  0  0  0  0  0
    2.3458    1.1979    7.3420 C   0  0  0  0  0  0  0  0  0  0  0  0
    1.2864    2.1499    7.6430 C   0  0  0  0  0  0  0  0  0  0  0  0
   -0.0009    1.7433    7.8460 C   0  0  0  0  0  0  0  0  0  0  0  0
   -0.9591    2.7077    8.1592 C   0  0  0  0  0  0  0  0  0  0  0  0
   -0.6492    4.0355    8.2688 C   0  0  0  0  0  0  0  0  0  0  0  0
    0.6617    4.4128    8.0574 C   0  0  0  0  0  0  0  0  0  0  0  0
    1.6016    3.4717    7.7509 C   0  0  0  0  0  0  0  0  0  0  0  0
   -1.6068    5.0886    8.6078 C   0  0  0  0  0  0  0  0  0  0  0  0
   -2.4277    4.8644    9.6870 C   0  0  0  0  0  0  0  0  0  0  0  0
   -3.3356    5.8345   10.0453 C   0  0  0  0  0  0  0  0  0  0  0  0
   -3.4446    7.0096    9.3624 C   0  0  0  0  0  0  0  0  0  0  0  0
   -2.6171    7.2123    8.2909 C   0  0  0  0  0  0  0  0  0  0  0  0
   -1.6853    6.2598    7.8934 C   0  0  0  0  0  0  0  0  0  0  0  0
   -0.8160    6.5158    6.7418 C   0  0  0  0  0  0  0  0  0  0  0  0
   -0.6512    5.7042    5.7032 N   0  0  0  0  0  0  0  0  0  0  0  0
    0.2057    6.2816    4.8942 N   0  0  0  0  0  0  0  0  0  0  0  0
    0.5766    7.4495    5.4218 N   0  0  0  0  0  0  0  0  0  0  0  0
   -0.0613    7.5898    6.5692 N   0  0  0  0  0  0  0  0  0  0  0  0
  1  2  1  0
  2  3  1  0
  3  4  2  0
  4  5  1  0
  5  6  2  0
  6  7  1  0
  7  8  2  0
  8  9  1  0
  9 10  2  0
  8 11  1  0
 11 12  1  0
 12 13  1  0
 13 14  2  0
 14 15  1  0
 15 16  2  0
 16 17  1  0
 17 18  2  0
 11 19  1  0
 19 20  2  0
 19 21  1  0
 21 22  2  0
 22 23  1  0
 23 24  2  0
 24 25  1  0
  6 26  1  0
 26 27  2  0
 26 28  1  0
 28 29  1  0
 29 30  1  0
 30 31  2  0
 31 32  1  0
 32 33  2  0
 33 34  1  0
 34 35  2  0
 33 36  1  0
 36 37  2  0
 37 38  1  0
 38 39  2  0
 39 40  1  0
 40 41  2  0
 41 42  1  0
 42 43  2  0
 43 44  1  0
 44 45  1  0
 45 46  2  0
 28  3  1  0
 10  5  1  0
 18 13  1  0
 25 21  1  0
 35 30  1  0
 41 36  1  0
 46 42  1  0
M  END
$$$$
