
     RDKit          3D

 46 52  0  0  0  0  0  0  0  0999 V2000
    1.3437   -3.0705    5.4657 C   0  0  0  0  0  0  0  0  0  0  0  0
    0.4982   -1.9231    6.0297 C   0  0  0  0  0  0  0  0  0  0  0  0
    0.8911   -1.7725    7.4367 C   0  0  0  0  0  0  0  0  0  0  0  0
    0.4359   -2.7677    8.2713 N   0  0  0  0  0  0  0  0  0  0  0  0
    0.7019   -2.7971    9.5721 C   0  0  0  0  0  0  0  0  0  0  0  0
    1.4700   -1.7651   10.0590 C   0  0  0  0  0  0  0  0  0  0  0  0
    1.7480   -1.7672   11.4004 C   0  0  0  0  0  0  0  0  0  0  0  0
    1.2756   -2.7693   12.2338 C   0  0  0  0  0  0  0  0  0  0  0  0
    0.5005   -3.8088   11.7221 C   0  0  0  0  0  0  0  0  0  0  0  0
    0.2151   -3.8106   10.3622 C   0  0  0  0  0  0  0  0  0  0  0  0
    1.5131   -2.7649   13.6284 N   0  0  0  0  0  0  0  0  0  0  0  0
    2.1839   -3.9188   14.1783 C   0  0  0  0  0  0  0  0  0  0  0  0
    3.6211   -3.7774   13.8576 C   0  0  0  0  0  0  0  0  0  0  0  0
    4.4395   -3.0731   14.6949 C   0  0  0  0  0  0  0  0  0  0  0  0
    5.7925   -2.9299   14.4135 C   0  0  0  0  0  0  0  0  0  0  0  0
    6.3280   -3.5041   13.2724 C   0  0  0  0  0  0  0  0  0  0  0  0
    5.5162   -4.2080   12.4326 C   0  0  0  0  0  0  0  0  0  0  0  0
    4.1778   -4.3482   12.7140 C   0  0  0  0  0  0  0  0  0  0  0  0
    1.1054   -1.7106   14.4369 C   0  0  0  0  0  0  0  0  0  0  0  0
    1.3189   -1.8205   15.7039 O   0  0  0  0  0  0  0  0  0  0  0  0
    0.4609   -0.5005   13.9831 C   0  0  0  0  0  0  0  0  0  0  0  0
   -0.4826   -0.2117   13.0708 C   0  0  0  0  0  0  0  0  0  0  0  0
   -0.8767    1.0453   12.8567 C   0  0  0  0  0  0  0  0  0  0  0  0
   -0.3186    2.0570   13.5712 C   0  0  0  0  0  0  0  0  0  0  0  0
    0.8839    1.1728   14.6585 S   0  0  0  0  0  0  0  0  0  0  0  0
    1.9254   -0.7672    9.2063 C   0  0  0  0  0  0  0  0  0  0  0  0
    2.6280    0.1557    9.6890 O   0  0  0  0  0  0  0  0  0  0  0  0
    1.6364   -0.7609    7.8679 N   0  0  0  0  0  0  0  0  0  0  0  0
    2.1542    0.2388    7.0193 C   0  0  0  0  0  0  0  0  0  0  0  0
    1.4967    1.5331    6.9122 C   0  0  0  0  0  0  0  0  0  0  0  0
    2.1072    2.5951    6.3096 C   0  0  0  0  0  0  0  0  0  0  0  0
    1.4060    3.7977    6.2168 C   0  0  0  0  0  0  0  0  0  0  0  0
    0.1368    3.9419    6.7062 C   0  0  0  0  0  0  0  0  0  0  0  0
   -0.4514    2.8484    7.3095 C   0  0  0  0  0  0  0  0  0  0  0  0
    0.2320    1.6704    7.4017 C   0  0  0  0  0  0  0  0  0  0  0  0
   -0.6518    5.1717    6.6255 C   0  0  0  0  0  0  0  0  0  0  0  0
   -1.6835    5.1952    5.7178 C   0  0  0  0  0  0  0  0  0  0  0  0
   -2.4560    6.3298    5.6179 C   0  0  0  0  0  0  0  0  0  0  0  0
   -2.2284    7.4293    6.3913 C   0  0  0  0  0  0  0  0  0  0  0  0
   -1.1958    7.3842    7.2889 C   0  0  0  0  0  0  0  0  0  0  0  0
   -0.3897    6.2592    7.4236 C   0  0  0  0  0  0  0  0  0  0  0  0
    0.7046    6.2498    8.3981 C   0  0  0  0  0  0  0  0  0  0  0  0
    0.8072    5.4272    9.4362 N   0  0  0  0  0  0  0  0  0  0  0  0
    1.9151    5.7381   10.0670 N   0  0  0  0  0  0  0  0  0  0  0  0
    2.5052    6.7499    9.4283 N   0  0  0  0  0  0  0  0  0  0  0  0
    1.7490    7.0635    8.3925 N   0  0  0  0  0  0  0  0  0  0  0  0
  1  2  1  0
  2  3  1  0
  3  4  2  0
  4  5  1  0
  5  6  2  0
  6  7  1  0
  7  8  2  0
  8  9  1  0
  9 10  2  0
  8 11  1  0
 11 12  1  0
 12 13  1  0
 13 14  2  0
 14 15  1  0
 15 16  2  0
 16 17  1  0
 17 18  2  0
 11 19  1  0
 19 20  2  0
 19 21  1  0
 21 22  2  0
 22 23  1  0
 23 24  2  0
 24 25  1  0
  6 26  1  0
 26 27  2  0
 26 28  1  0
 28 29  1  0
 29 30  1  0
 30 31  2  0
 31 32  1  0
 32 33  2  0
 33 34  1  0
 34 35  2  0
 33 36  1  0
 36 37  2  0
 37 38  1  0
 38 39  2  0
 39 40  1  0
 40 41  2  0
 41 42  1  0
 42 43  2  0
 43 44  1  0
 44 45  1  0
 45 46  2  0
 28  3  1  0
 10  5  1  0
 18 13  1  0
 25 21  1  0
 35 30  1  0
 41 36  1  0
 46 42  1  0
M  END
$$$$
