
     RDKit          3D

 46 52  0  0  0  0  0  0  0  0999 V2000
    2.8344   -1.3841    4.8104 C   0  0  0  0  0  0  0  0  0  0  0  0
    1.3431   -1.4071    5.1637 C   0  0  0  0  0  0  0  0  0  0  0  0
    1.2585   -1.1984    6.6148 C   0  0  0  0  0  0  0  0  0  0  0  0
    2.1481   -1.9421    7.3563 N   0  0  0  0  0  0  0  0  0  0  0  0
    2.2178   -1.8745    8.6809 C   0  0  0  0  0  0  0  0  0  0  0  0
    1.3413   -1.0084    9.2923 C   0  0  0  0  0  0  0  0  0  0  0  0
    1.3861   -0.9300   10.6593 C   0  0  0  0  0  0  0  0  0  0  0  0
    2.2793   -1.6914   11.3969 C   0  0  0  0  0  0  0  0  0  0  0  0
    3.1621   -2.5621   10.7598 C   0  0  0  0  0  0  0  0  0  0  0  0
    3.1198   -2.6458    9.3734 C   0  0  0  0  0  0  0  0  0  0  0  0
    2.3100   -1.6587   12.8109 N   0  0  0  0  0  0  0  0  0  0  0  0
    2.7011   -0.4122   13.4251 C   0  0  0  0  0  0  0  0  0  0  0  0
    4.1381   -0.2180   13.1326 C   0  0  0  0  0  0  0  0  0  0  0  0
    5.0641   -0.3920   14.1221 C   0  0  0  0  0  0  0  0  0  0  0  0
    6.4187   -0.2166   13.8683 C   0  0  0  0  0  0  0  0  0  0  0  0
    6.8460    0.1393   12.5997 C   0  0  0  0  0  0  0  0  0  0  0  0
    5.9266    0.3147   11.6079 C   0  0  0  0  0  0  0  0  0  0  0  0
    4.5869    0.1401   11.8622 C   0  0  0  0  0  0  0  0  0  0  0  0
    1.9974   -2.7763   13.5758 C   0  0  0  0  0  0  0  0  0  0  0  0
    2.1425   -2.6776   14.8533 O   0  0  0  0  0  0  0  0  0  0  0  0
    1.5248   -4.0418   13.0653 C   0  0  0  0  0  0  0  0  0  0  0  0
    0.8072   -4.4264   11.9961 C   0  0  0  0  0  0  0  0  0  0  0  0
    0.5048   -5.7099   11.7907 C   0  0  0  0  0  0  0  0  0  0  0  0
    0.9276   -6.6512   12.6744 C   0  0  0  0  0  0  0  0  0  0  0  0
    1.8437   -5.6511   13.9276 S   0  0  0  0  0  0  0  0  0  0  0  0
    0.4492   -0.2615    8.5330 C   0  0  0  0  0  0  0  0  0  0  0  0
   -0.3320    0.5215    9.1289 O   0  0  0  0  0  0  0  0  0  0  0  0
    0.3983   -0.3503    7.1676 N   0  0  0  0  0  0  0  0  0  0  0  0
   -0.4842    0.4571    6.4212 C   0  0  0  0  0  0  0  0  0  0  0  0
   -0.4410    1.9074    6.5399 C   0  0  0  0  0  0  0  0  0  0  0  0
    0.4487    2.5287    7.3681 C   0  0  0  0  0  0  0  0  0  0  0  0
    0.4534    3.9232    7.4096 C   0  0  0  0  0  0  0  0  0  0  0  0
   -0.3984    4.6786    6.6513 C   0  0  0  0  0  0  0  0  0  0  0  0
   -1.2853    4.0187    5.8244 C   0  0  0  0  0  0  0  0  0  0  0  0
   -1.2923    2.6545    5.7815 C   0  0  0  0  0  0  0  0  0  0  0  0
   -0.4301    6.1414    6.6422 C   0  0  0  0  0  0  0  0  0  0  0  0
   -0.8269    6.7517    5.4765 C   0  0  0  0  0  0  0  0  0  0  0  0
   -0.8800    8.1260    5.4298 C   0  0  0  0  0  0  0  0  0  0  0  0
   -0.5511    8.8988    6.5038 C   0  0  0  0  0  0  0  0  0  0  0  0
   -0.1588    8.2703    7.6549 C   0  0  0  0  0  0  0  0  0  0  0  0
   -0.0904    6.8845    7.7471 C   0  0  0  0  0  0  0  0  0  0  0  0
    0.3324    6.2497    8.9984 C   0  0  0  0  0  0  0  0  0  0  0  0
    1.5335    6.3634    9.5545 N   0  0  0  0  0  0  0  0  0  0  0  0
    1.5195    5.6460   10.6532 N   0  0  0  0  0  0  0  0  0  0  0  0
    0.3164    5.0853   10.7864 N   0  0  0  0  0  0  0  0  0  0  0  0
   -0.4169    5.4639    9.7559 N   0  0  0  0  0  0  0  0  0  0  0  0
  1  2  1  0
  2  3  1  0
  3  4  2  0
  4  5  1  0
  5  6  2  0
  6  7  1  0
  7  8  2  0
  8  9  1  0
  9 10  2  0
  8 11  1  0
 11 12  1  0
 12 13  1  0
 13 14  2  0
 14 15  1  0
 15 16  2  0
 16 17  1  0
 17 18  2  0
 11 19  1  0
 19 20  2  0
 19 21  1  0
 21 22  2  0
 22 23  1  0
 23 24  2  0
 24 25  1  0
  6 26  1  0
 26 27  2  0
 26 28  1  0
 28 29  1  0
 29 30  1  0
 30 31  2  0
 31 32  1  0
 32 33  2  0
 33 34  1  0
 34 35  2  0
 33 36  1  0
 36 37  2  0
 37 38  1  0
 38 39  2  0
 39 40  1  0
 40 41  2  0
 41 42  1  0
 42 43  2  0
 43 44  1  0
 44 45  1  0
 45 46  2  0
 28  3  1  0
 10  5  1  0
 18 13  1  0
 25 21  1  0
 35 30  1  0
 41 36  1  0
 46 42  1  0
M  END
$$$$
