
     RDKit          3D

 46 52  0  0  0  0  0  0  0  0999 V2000
    0.7780   -2.4578    5.9927 C   0  0  0  0  0  0  0  0  0  0  0  0
    1.6141   -1.2235    6.3490 C   0  0  0  0  0  0  0  0  0  0  0  0
    1.7373   -1.2157    7.8123 C   0  0  0  0  0  0  0  0  0  0  0  0
    1.3999   -2.4011    8.4248 N   0  0  0  0  0  0  0  0  0  0  0  0
    1.4594   -2.5769    9.7399 C   0  0  0  0  0  0  0  0  0  0  0  0
    1.8827   -1.4968   10.4791 C   0  0  0  0  0  0  0  0  0  0  0  0
    1.9410   -1.6500   11.8392 C   0  0  0  0  0  0  0  0  0  0  0  0
    1.5889   -2.8455   12.4465 C   0  0  0  0  0  0  0  0  0  0  0  0
    1.1645   -3.9304   11.6809 C   0  0  0  0  0  0  0  0  0  0  0  0
    1.1029   -3.7796   10.3010 C   0  0  0  0  0  0  0  0  0  0  0  0
    1.5986   -3.0091   13.8516 N   0  0  0  0  0  0  0  0  0  0  0  0
    2.7614   -3.6436   14.4253 C   0  0  0  0  0  0  0  0  0  0  0  0
    3.0294   -4.8593   13.6261 C   0  0  0  0  0  0  0  0  0  0  0  0
    3.9914   -4.8382   12.6561 C   0  0  0  0  0  0  0  0  0  0  0  0
    4.2603   -5.9693   11.8956 C   0  0  0  0  0  0  0  0  0  0  0  0
    3.5498   -7.1378   12.1155 C   0  0  0  0  0  0  0  0  0  0  0  0
    2.5881   -7.1650   13.0820 C   0  0  0  0  0  0  0  0  0  0  0  0
    2.3246   -6.0442   13.8332 C   0  0  0  0  0  0  0  0  0  0  0  0
    0.5335   -2.5971   14.6438 C   0  0  0  0  0  0  0  0  0  0  0  0
    0.5920   -2.8718   15.9023 O   0  0  0  0  0  0  0  0  0  0  0  0
   -0.6364   -1.8881   14.1810 C   0  0  0  0  0  0  0  0  0  0  0  0
   -1.4687   -2.0107   13.1330 C   0  0  0  0  0  0  0  0  0  0  0  0
   -2.4886   -1.1683   12.9568 C   0  0  0  0  0  0  0  0  0  0  0  0
   -2.6961   -0.1658   13.8498 C   0  0  0  0  0  0  0  0  0  0  0  0
   -1.3302   -0.4155   15.0672 S   0  0  0  0  0  0  0  0  0  0  0  0
    2.2224   -0.3059    9.8493 C   0  0  0  0  0  0  0  0  0  0  0  0
    2.6086    0.6558   10.5594 O   0  0  0  0  0  0  0  0  0  0  0  0
    2.1520   -0.1514    8.4906 N   0  0  0  0  0  0  0  0  0  0  0  0
    2.5507    1.0535    7.8766 C   0  0  0  0  0  0  0  0  0  0  0  0
    1.7561    2.2631    8.0335 C   0  0  0  0  0  0  0  0  0  0  0  0
    2.3366    3.4983    8.0652 C   0  0  0  0  0  0  0  0  0  0  0  0
    1.5108    4.6159    8.1889 C   0  0  0  0  0  0  0  0  0  0  0  0
    0.1498    4.5112    8.2774 C   0  0  0  0  0  0  0  0  0  0  0  0
   -0.4049    3.2476    8.2421 C   0  0  0  0  0  0  0  0  0  0  0  0
    0.4003    2.1522    8.1210 C   0  0  0  0  0  0  0  0  0  0  0  0
   -0.7666    5.6459    8.3941 C   0  0  0  0  0  0  0  0  0  0  0  0
   -1.6894    5.6031    9.4117 C   0  0  0  0  0  0  0  0  0  0  0  0
   -2.5631    6.6557    9.5622 C   0  0  0  0  0  0  0  0  0  0  0  0
   -2.5404    7.7378    8.7330 C   0  0  0  0  0  0  0  0  0  0  0  0
   -1.6131    7.7599    7.7263 C   0  0  0  0  0  0  0  0  0  0  0  0
   -0.7111    6.7186    7.5371 C   0  0  0  0  0  0  0  0  0  0  0  0
    0.2681    6.7813    6.4486 C   0  0  0  0  0  0  0  0  0  0  0  0
    0.3471    5.9308    5.4312 N   0  0  0  0  0  0  0  0  0  0  0  0
    1.3514    6.3187    4.6809 N   0  0  0  0  0  0  0  0  0  0  0  0
    1.8997    7.4070    5.2240 N   0  0  0  0  0  0  0  0  0  0  0  0
    1.2226    7.6898    6.3215 N   0  0  0  0  0  0  0  0  0  0  0  0
  1  2  1  0
  2  3  1  0
  3  4  2  0
  4  5  1  0
  5  6  2  0
  6  7  1  0
  7  8  2  0
  8  9  1  0
  9 10  2  0
  8 11  1  0
 11 12  1  0
 12 13  1  0
 13 14  2  0
 14 15  1  0
 15 16  2  0
 16 17  1  0
 17 18  2  0
 11 19  1  0
 19 20  2  0
 19 21  1  0
 21 22  2  0
 22 23  1  0
 23 24  2  0
 24 25  1  0
  6 26  1  0
 26 27  2  0
 26 28  1  0
 28 29  1  0
 29 30  1  0
 30 31  2  0
 31 32  1  0
 32 33  2  0
 33 34  1  0
 34 35  2  0
 33 36  1  0
 36 37  2  0
 37 38  1  0
 38 39  2  0
 39 40  1  0
 40 41  2  0
 41 42  1  0
 42 43  2  0
 43 44  1  0
 44 45  1  0
 45 46  2  0
 28  3  1  0
 10  5  1  0
 18 13  1  0
 25 21  1  0
 35 30  1  0
 41 36  1  0
 46 42  1  0
M  END
$$$$
