
     RDKit          3D

 46 52  0  0  0  0  0  0  0  0999 V2000
   -2.7481   -0.7556    7.4454 C   0  0  0  0  0  0  0  0  0  0  0  0
   -2.1000    0.5039    8.0311 C   0  0  0  0  0  0  0  0  0  0  0  0
   -0.8535    0.0673    8.6731 C   0  0  0  0  0  0  0  0  0  0  0  0
   -1.0222   -0.5903    9.8704 N   0  0  0  0  0  0  0  0  0  0  0  0
   -0.0067   -1.0619   10.5845 C   0  0  0  0  0  0  0  0  0  0  0  0
    1.2497   -0.8592   10.0624 C   0  0  0  0  0  0  0  0  0  0  0  0
    2.3143   -1.3264   10.7870 C   0  0  0  0  0  0  0  0  0  0  0  0
    2.1334   -1.9784   11.9969 C   0  0  0  0  0  0  0  0  0  0  0  0
    0.8523   -2.1771   12.5094 C   0  0  0  0  0  0  0  0  0  0  0  0
   -0.2308   -1.7042   11.7785 C   0  0  0  0  0  0  0  0  0  0  0  0
    3.2213   -2.4275   12.7817 N   0  0  0  0  0  0  0  0  0  0  0  0
    4.1716   -1.4287   13.2099 C   0  0  0  0  0  0  0  0  0  0  0  0
    3.5521   -0.6970   14.3365 C   0  0  0  0  0  0  0  0  0  0  0  0
    4.2397    0.3079   14.9562 C   0  0  0  0  0  0  0  0  0  0  0  0
    3.6757    1.0089   16.0148 C   0  0  0  0  0  0  0  0  0  0  0  0
    2.4010    0.6927   16.4550 C   0  0  0  0  0  0  0  0  0  0  0  0
    1.7096   -0.3095   15.8407 C   0  0  0  0  0  0  0  0  0  0  0  0
    2.2704   -1.0012   14.7933 C   0  0  0  0  0  0  0  0  0  0  0  0
    3.3816   -3.7681   13.1116 C   0  0  0  0  0  0  0  0  0  0  0  0
    4.2089   -4.0486   14.0601 O   0  0  0  0  0  0  0  0  0  0  0  0
    2.7032   -4.8776   12.4837 C   0  0  0  0  0  0  0  0  0  0  0  0
    2.8964   -6.2068   12.4393 C   0  0  0  0  0  0  0  0  0  0  0  0
    2.0837   -7.0014   11.7399 C   0  0  0  0  0  0  0  0  0  0  0  0
    1.0390   -6.4638   11.0580 C   0  0  0  0  0  0  0  0  0  0  0  0
    1.1982   -4.6608   11.4240 S   0  0  0  0  0  0  0  0  0  0  0  0
    1.4073   -0.1956    8.8520 C   0  0  0  0  0  0  0  0  0  0  0  0
    2.5709   -0.0344    8.4067 O   0  0  0  0  0  0  0  0  0  0  0  0
    0.3422    0.2808    8.1353 N   0  0  0  0  0  0  0  0  0  0  0  0
    0.5310    0.9064    6.8860 C   0  0  0  0  0  0  0  0  0  0  0  0
    0.6274    2.3558    6.7904 C   0  0  0  0  0  0  0  0  0  0  0  0
    0.4541    3.0049    5.6020 C   0  0  0  0  0  0  0  0  0  0  0  0
    0.5316    4.3978    5.5900 C   0  0  0  0  0  0  0  0  0  0  0  0
    0.7728    5.1250    6.7233 C   0  0  0  0  0  0  0  0  0  0  0  0
    0.9432    4.4375    7.9082 C   0  0  0  0  0  0  0  0  0  0  0  0
    0.8678    3.0747    7.9233 C   0  0  0  0  0  0  0  0  0  0  0  0
    0.8509    6.5851    6.7746 C   0  0  0  0  0  0  0  0  0  0  0  0
    1.6234    7.2046    5.8215 C   0  0  0  0  0  0  0  0  0  0  0  0
    1.7150    8.5776    5.8287 C   0  0  0  0  0  0  0  0  0  0  0  0
    1.0633    9.3404    6.7520 C   0  0  0  0  0  0  0  0  0  0  0  0
    0.2993    8.7030    7.6921 C   0  0  0  0  0  0  0  0  0  0  0  0
    0.1781    7.3181    7.7225 C   0  0  0  0  0  0  0  0  0  0  0  0
   -0.6516    6.6737    8.7441 C   0  0  0  0  0  0  0  0  0  0  0  0
   -1.6296    5.8058    8.5099 N   0  0  0  0  0  0  0  0  0  0  0  0
   -2.1319    5.4669    9.6739 N   0  0  0  0  0  0  0  0  0  0  0  0
   -1.4727    6.1181   10.6337 N   0  0  0  0  0  0  0  0  0  0  0  0
   -0.5543    6.8660   10.0504 N   0  0  0  0  0  0  0  0  0  0  0  0
  1  2  1  0
  2  3  1  0
  3  4  2  0
  4  5  1  0
  5  6  2  0
  6  7  1  0
  7  8  2  0
  8  9  1  0
  9 10  2  0
  8 11  1  0
 11 12  1  0
 12 13  1  0
 13 14  2  0
 14 15  1  0
 15 16  2  0
 16 17  1  0
 17 18  2  0
 11 19  1  0
 19 20  2  0
 19 21  1  0
 21 22  2  0
 22 23  1  0
 23 24  2  0
 24 25  1  0
  6 26  1  0
 26 27  2  0
 26 28  1  0
 28 29  1  0
 29 30  1  0
 30 31  2  0
 31 32  1  0
 32 33  2  0
 33 34  1  0
 34 35  2  0
 33 36  1  0
 36 37  2  0
 37 38  1  0
 38 39  2  0
 39 40  1  0
 40 41  2  0
 41 42  1  0
 42 43  2  0
 43 44  1  0
 44 45  1  0
 45 46  2  0
 28  3  1  0
 10  5  1  0
 18 13  1  0
 25 21  1  0
 35 30  1  0
 41 36  1  0
 46 42  1  0
M  END
$$$$
