
     RDKit          3D

 46 52  0  0  0  0  0  0  0  0999 V2000
    0.4871   -2.4732    4.3649 C   0  0  0  0  0  0  0  0  0  0  0  0
    1.2658   -1.1573    4.4732 C   0  0  0  0  0  0  0  0  0  0  0  0
    1.6738   -1.0326    5.8784 C   0  0  0  0  0  0  0  0  0  0  0  0
    1.7474   -2.2235    6.5644 N   0  0  0  0  0  0  0  0  0  0  0  0
    2.1073   -2.3007    7.8405 C   0  0  0  0  0  0  0  0  0  0  0  0
    2.4099   -1.1104    8.4599 C   0  0  0  0  0  0  0  0  0  0  0  0
    2.7725   -1.1631    9.7799 C   0  0  0  0  0  0  0  0  0  0  0  0
    2.8335   -2.3673   10.4640 C   0  0  0  0  0  0  0  0  0  0  0  0
    2.5257   -3.5643    9.8191 C   0  0  0  0  0  0  0  0  0  0  0  0
    2.1565   -3.5158    8.4804 C   0  0  0  0  0  0  0  0  0  0  0  0
    3.1612   -2.4383   11.8384 N   0  0  0  0  0  0  0  0  0  0  0  0
    2.0666   -2.3414   12.7746 C   0  0  0  0  0  0  0  0  0  0  0  0
    1.5574   -3.7137   12.9883 C   0  0  0  0  0  0  0  0  0  0  0  0
    1.1796   -4.1128   14.2392 C   0  0  0  0  0  0  0  0  0  0  0  0
    0.6967   -5.3965   14.4613 C   0  0  0  0  0  0  0  0  0  0  0  0
    0.5934   -6.2903   13.4083 C   0  0  0  0  0  0  0  0  0  0  0  0
    0.9692   -5.8980   12.1574 C   0  0  0  0  0  0  0  0  0  0  0  0
    1.4463   -4.6270   11.9408 C   0  0  0  0  0  0  0  0  0  0  0  0
    4.4746   -2.5760   12.2714 C   0  0  0  0  0  0  0  0  0  0  0  0
    5.3483   -2.9494   11.3997 O   0  0  0  0  0  0  0  0  0  0  0  0
    4.9485   -2.3387   13.6148 C   0  0  0  0  0  0  0  0  0  0  0  0
    4.4536   -2.5455   14.8470 C   0  0  0  0  0  0  0  0  0  0  0  0
    5.1411   -2.1971   15.9365 C   0  0  0  0  0  0  0  0  0  0  0  0
    6.3652   -1.6228   15.8054 C   0  0  0  0  0  0  0  0  0  0  0  0
    6.5902   -1.5570   13.9737 S   0  0  0  0  0  0  0  0  0  0  0  0
    2.3338    0.0853    7.7564 C   0  0  0  0  0  0  0  0  0  0  0  0
    2.6224    1.1505    8.3567 O   0  0  0  0  0  0  0  0  0  0  0  0
    1.9597    0.1367    6.4403 N   0  0  0  0  0  0  0  0  0  0  0  0
    1.9396    1.3601    5.7398 C   0  0  0  0  0  0  0  0  0  0  0  0
    1.0304    2.4257    6.1360 C   0  0  0  0  0  0  0  0  0  0  0  0
   -0.1279    2.1613    6.8083 C   0  0  0  0  0  0  0  0  0  0  0  0
   -0.9372    3.2344    7.1820 C   0  0  0  0  0  0  0  0  0  0  0  0
   -0.6067    4.5311    6.8982 C   0  0  0  0  0  0  0  0  0  0  0  0
    0.5714    4.7635    6.2172 C   0  0  0  0  0  0  0  0  0  0  0  0
    1.3655    3.7157    5.8503 C   0  0  0  0  0  0  0  0  0  0  0  0
   -1.4071    5.6961    7.2763 C   0  0  0  0  0  0  0  0  0  0  0  0
   -2.5028    5.9822    6.4975 C   0  0  0  0  0  0  0  0  0  0  0  0
   -3.2879    7.0638    6.8254 C   0  0  0  0  0  0  0  0  0  0  0  0
   -3.0113    7.8588    7.8980 C   0  0  0  0  0  0  0  0  0  0  0  0
   -1.9153    7.5556    8.6602 C   0  0  0  0  0  0  0  0  0  0  0  0
   -1.0942    6.4727    8.3659 C   0  0  0  0  0  0  0  0  0  0  0  0
    0.0689    6.1802    9.2080 C   0  0  0  0  0  0  0  0  0  0  0  0
    1.3289    6.4835    8.9167 N   0  0  0  0  0  0  0  0  0  0  0  0
    2.0694    6.0528    9.9108 N   0  0  0  0  0  0  0  0  0  0  0  0
    1.2786    5.4825   10.8214 N   0  0  0  0  0  0  0  0  0  0  0  0
    0.0371    5.5647   10.3798 N   0  0  0  0  0  0  0  0  0  0  0  0
  1  2  1  0
  2  3  1  0
  3  4  2  0
  4  5  1  0
  5  6  2  0
  6  7  1  0
  7  8  2  0
  8  9  1  0
  9 10  2  0
  8 11  1  0
 11 12  1  0
 12 13  1  0
 13 14  2  0
 14 15  1  0
 15 16  2  0
 16 17  1  0
 17 18  2  0
 11 19  1  0
 19 20  2  0
 19 21  1  0
 21 22  2  0
 22 23  1  0
 23 24  2  0
 24 25  1  0
  6 26  1  0
 26 27  2  0
 26 28  1  0
 28 29  1  0
 29 30  1  0
 30 31  2  0
 31 32  1  0
 32 33  2  0
 33 34  1  0
 34 35  2  0
 33 36  1  0
 36 37  2  0
 37 38  1  0
 38 39  2  0
 39 40  1  0
 40 41  2  0
 41 42  1  0
 42 43  2  0
 43 44  1  0
 44 45  1  0
 45 46  2  0
 28  3  1  0
 10  5  1  0
 18 13  1  0
 25 21  1  0
 35 30  1  0
 41 36  1  0
 46 42  1  0
M  END
$$$$
