
     RDKit          3D

 46 52  0  0  0  0  0  0  0  0999 V2000
    2.9356   -2.7762    5.1390 C   0  0  0  0  0  0  0  0  0  0  0  0
    1.8182   -1.8328    5.5983 C   0  0  0  0  0  0  0  0  0  0  0  0
    2.1281   -1.4697    6.9870 C   0  0  0  0  0  0  0  0  0  0  0  0
    2.1923   -2.5323    7.8594 N   0  0  0  0  0  0  0  0  0  0  0  0
    2.4689   -2.3908    9.1506 C   0  0  0  0  0  0  0  0  0  0  0  0
    2.6934   -1.1058    9.5870 C   0  0  0  0  0  0  0  0  0  0  0  0
    2.9691   -0.9331   10.9177 C   0  0  0  0  0  0  0  0  0  0  0  0
    3.0212   -2.0096   11.7896 C   0  0  0  0  0  0  0  0  0  0  0  0
    2.7934   -3.3055   11.3288 C   0  0  0  0  0  0  0  0  0  0  0  0
    2.5125   -3.4856    9.9800 C   0  0  0  0  0  0  0  0  0  0  0  0
    3.2590   -1.8477   13.1747 N   0  0  0  0  0  0  0  0  0  0  0  0
    4.5874   -1.4379   13.5638 C   0  0  0  0  0  0  0  0  0  0  0  0
    5.4422   -2.6444   13.5207 C   0  0  0  0  0  0  0  0  0  0  0  0
    6.7483   -2.5401   13.1332 C   0  0  0  0  0  0  0  0  0  0  0  0
    7.5689   -3.6602   13.0877 C   0  0  0  0  0  0  0  0  0  0  0  0
    7.0663   -4.9027   13.4373 C   0  0  0  0  0  0  0  0  0  0  0  0
    5.7634   -5.0133   13.8247 C   0  0  0  0  0  0  0  0  0  0  0  0
    4.9540   -3.9029   13.8690 C   0  0  0  0  0  0  0  0  0  0  0  0
    2.2693   -2.0885   14.1203 C   0  0  0  0  0  0  0  0  0  0  0  0
    2.5850   -1.9285   15.3603 O   0  0  0  0  0  0  0  0  0  0  0  0
    0.9157   -2.5044   13.8367 C   0  0  0  0  0  0  0  0  0  0  0  0
    0.3205   -3.1892   12.8454 C   0  0  0  0  0  0  0  0  0  0  0  0
   -0.9953   -3.4119   12.8509 C   0  0  0  0  0  0  0  0  0  0  0  0
   -1.7537   -2.9410   13.8750 C   0  0  0  0  0  0  0  0  0  0  0  0
   -0.5104   -2.0972   14.9483 S   0  0  0  0  0  0  0  0  0  0  0  0
    2.6278   -0.0414    8.6965 C   0  0  0  0  0  0  0  0  0  0  0  0
    2.8434    1.1166    9.1335 O   0  0  0  0  0  0  0  0  0  0  0  0
    2.3404   -0.2153    7.3691 N   0  0  0  0  0  0  0  0  0  0  0  0
    2.3296    0.8793    6.4805 C   0  0  0  0  0  0  0  0  0  0  0  0
    1.2084    1.8076    6.4622 C   0  0  0  0  0  0  0  0  0  0  0  0
   -0.0032    1.4726    6.9945 C   0  0  0  0  0  0  0  0  0  0  0  0
   -1.0244    2.4227    6.9681 C   0  0  0  0  0  0  0  0  0  0  0  0
   -0.8484    3.6683    6.4307 C   0  0  0  0  0  0  0  0  0  0  0  0
    0.3890    3.9747    5.9010 C   0  0  0  0  0  0  0  0  0  0  0  0
    1.3903    3.0473    5.9254 C   0  0  0  0  0  0  0  0  0  0  0  0
   -1.8759    4.7091    6.3874 C   0  0  0  0  0  0  0  0  0  0  0  0
   -2.9731    4.4729    5.5942 C   0  0  0  0  0  0  0  0  0  0  0  0
   -3.9673    5.4225    5.5339 C   0  0  0  0  0  0  0  0  0  0  0  0
   -3.8960    6.5889    6.2364 C   0  0  0  0  0  0  0  0  0  0  0  0
   -2.7944    6.8036    7.0203 C   0  0  0  0  0  0  0  0  0  0  0  0
   -1.7662    5.8720    7.1112 C   0  0  0  0  0  0  0  0  0  0  0  0
   -0.6043    6.1385    7.9636 C   0  0  0  0  0  0  0  0  0  0  0  0
    0.2914    7.1001    7.7695 N   0  0  0  0  0  0  0  0  0  0  0  0
    1.1738    7.0066    8.7363 N   0  0  0  0  0  0  0  0  0  0  0  0
    0.8338    5.9922    9.5332 N   0  0  0  0  0  0  0  0  0  0  0  0
   -0.2714    5.4567    9.0486 N   0  0  0  0  0  0  0  0  0  0  0  0
  1  2  1  0
  2  3  1  0
  3  4  2  0
  4  5  1  0
  5  6  2  0
  6  7  1  0
  7  8  2  0
  8  9  1  0
  9 10  2  0
  8 11  1  0
 11 12  1  0
 12 13  1  0
 13 14  2  0
 14 15  1  0
 15 16  2  0
 16 17  1  0
 17 18  2  0
 11 19  1  0
 19 20  2  0
 19 21  1  0
 21 22  2  0
 22 23  1  0
 23 24  2  0
 24 25  1  0
  6 26  1  0
 26 27  2  0
 26 28  1  0
 28 29  1  0
 29 30  1  0
 30 31  2  0
 31 32  1  0
 32 33  2  0
 33 34  1  0
 34 35  2  0
 33 36  1  0
 36 37  2  0
 37 38  1  0
 38 39  2  0
 39 40  1  0
 40 41  2  0
 41 42  1  0
 42 43  2  0
 43 44  1  0
 44 45  1  0
 45 46  2  0
 28  3  1  0
 10  5  1  0
 18 13  1  0
 25 21  1  0
 35 30  1  0
 41 36  1  0
 46 42  1  0
M  END
$$$$
