
     RDKit          3D

 46 52  0  0  0  0  0  0  0  0999 V2000
   -1.6780   -1.7608    5.7932 C   0  0  0  0  0  0  0  0  0  0  0  0
   -1.5015   -0.4533    6.5734 C   0  0  0  0  0  0  0  0  0  0  0  0
   -0.5031   -0.7250    7.6156 C   0  0  0  0  0  0  0  0  0  0  0  0
   -0.9198   -1.5920    8.5999 N   0  0  0  0  0  0  0  0  0  0  0  0
   -0.1459   -1.9568    9.6158 C   0  0  0  0  0  0  0  0  0  0  0  0
    1.1191   -1.4172    9.6407 C   0  0  0  0  0  0  0  0  0  0  0  0
    1.9322   -1.7693   10.6855 C   0  0  0  0  0  0  0  0  0  0  0  0
    1.4986   -2.6355   11.6772 C   0  0  0  0  0  0  0  0  0  0  0  0
    0.2138   -3.1747   11.6341 C   0  0  0  0  0  0  0  0  0  0  0  0
   -0.6150   -2.8198   10.5767 C   0  0  0  0  0  0  0  0  0  0  0  0
    2.3063   -2.9754   12.7877 N   0  0  0  0  0  0  0  0  0  0  0  0
    2.2283   -2.1084   13.9393 C   0  0  0  0  0  0  0  0  0  0  0  0
    3.1919   -1.0080   13.7183 C   0  0  0  0  0  0  0  0  0  0  0  0
    4.2586   -1.1939   12.8851 C   0  0  0  0  0  0  0  0  0  0  0  0
    5.1742   -0.1730   12.6620 C   0  0  0  0  0  0  0  0  0  0  0  0
    5.0125    1.0522   13.2876 C   0  0  0  0  0  0  0  0  0  0  0  0
    3.9499    1.2439   14.1206 C   0  0  0  0  0  0  0  0  0  0  0  0
    3.0455    0.2318   14.3390 C   0  0  0  0  0  0  0  0  0  0  0  0
    3.1499   -4.0797   12.7685 C   0  0  0  0  0  0  0  0  0  0  0  0
    3.9631   -4.2198   13.7594 O   0  0  0  0  0  0  0  0  0  0  0  0
    3.1976   -5.0861   11.7338 C   0  0  0  0  0  0  0  0  0  0  0  0
    2.3294   -5.5495   10.8187 C   0  0  0  0  0  0  0  0  0  0  0  0
    2.6667   -6.5300    9.9785 C   0  0  0  0  0  0  0  0  0  0  0  0
    3.9097   -7.0744   10.0432 C   0  0  0  0  0  0  0  0  0  0  0  0
    4.6988   -6.1261   11.4174 S   0  0  0  0  0  0  0  0  0  0  0  0
    1.5290   -0.5445    8.6403 C   0  0  0  0  0  0  0  0  0  0  0  0
    2.6936   -0.0766    8.6965 O   0  0  0  0  0  0  0  0  0  0  0  0
    0.7104   -0.1848    7.6032 N   0  0  0  0  0  0  0  0  0  0  0  0
    1.1719    0.6641    6.5765 C   0  0  0  0  0  0  0  0  0  0  0  0
    0.8977    2.0932    6.6175 C   0  0  0  0  0  0  0  0  0  0  0  0
    0.1742    2.6514    7.6317 C   0  0  0  0  0  0  0  0  0  0  0  0
   -0.0250    4.0321    7.6219 C   0  0  0  0  0  0  0  0  0  0  0  0
    0.4795    4.8351    6.6360 C   0  0  0  0  0  0  0  0  0  0  0  0
    1.2066    4.2386    5.6255 C   0  0  0  0  0  0  0  0  0  0  0  0
    1.4033    2.8880    5.6323 C   0  0  0  0  0  0  0  0  0  0  0  0
    0.3155    6.2880    6.5804 C   0  0  0  0  0  0  0  0  0  0  0  0
   -0.2936    6.8069    5.4630 C   0  0  0  0  0  0  0  0  0  0  0  0
   -0.4762    8.1681    5.3762 C   0  0  0  0  0  0  0  0  0  0  0  0
   -0.0712    9.0158    6.3643 C   0  0  0  0  0  0  0  0  0  0  0  0
    0.5330    8.4778    7.4685 C   0  0  0  0  0  0  0  0  0  0  0  0
    0.7380    7.1086    7.5984 C   0  0  0  0  0  0  0  0  0  0  0  0
    1.3869    6.5716    8.7976 C   0  0  0  0  0  0  0  0  0  0  0  0
    2.1123    5.4601    8.8509 N   0  0  0  0  0  0  0  0  0  0  0  0
    2.5101    5.3180   10.0933 N   0  0  0  0  0  0  0  0  0  0  0  0
    2.0374    6.3348   10.8161 N   0  0  0  0  0  0  0  0  0  0  0  0
    1.3407    7.1104   10.0061 N   0  0  0  0  0  0  0  0  0  0  0  0
  1  2  1  0
  2  3  1  0
  3  4  2  0
  4  5  1  0
  5  6  2  0
  6  7  1  0
  7  8  2  0
  8  9  1  0
  9 10  2  0
  8 11  1  0
 11 12  1  0
 12 13  1  0
 13 14  2  0
 14 15  1  0
 15 16  2  0
 16 17  1  0
 17 18  2  0
 11 19  1  0
 19 20  2  0
 19 21  1  0
 21 22  2  0
 22 23  1  0
 23 24  2  0
 24 25  1  0
  6 26  1  0
 26 27  2  0
 26 28  1  0
 28 29  1  0
 29 30  1  0
 30 31  2  0
 31 32  1  0
 32 33  2  0
 33 34  1  0
 34 35  2  0
 33 36  1  0
 36 37  2  0
 37 38  1  0
 38 39  2  0
 39 40  1  0
 40 41  2  0
 41 42  1  0
 42 43  2  0
 43 44  1  0
 44 45  1  0
 45 46  2  0
 28  3  1  0
 10  5  1  0
 18 13  1  0
 25 21  1  0
 35 30  1  0
 41 36  1  0
 46 42  1  0
M  END
$$$$
