
     RDKit          3D

 46 52  0  0  0  0  0  0  0  0999 V2000
    1.9493   -2.5901    5.0540 C   0  0  0  0  0  0  0  0  0  0  0  0
    0.9880   -1.5199    5.5834 C   0  0  0  0  0  0  0  0  0  0  0  0
    1.3946   -1.2471    6.9679 C   0  0  0  0  0  0  0  0  0  0  0  0
    1.2335   -2.3044    7.8342 N   0  0  0  0  0  0  0  0  0  0  0  0
    1.5563   -2.2394    9.1208 C   0  0  0  0  0  0  0  0  0  0  0  0
    2.0703   -1.0411    9.5588 C   0  0  0  0  0  0  0  0  0  0  0  0
    2.3999   -0.9457   10.8851 C   0  0  0  0  0  0  0  0  0  0  0  0
    2.2238   -2.0139   11.7510 C   0  0  0  0  0  0  0  0  0  0  0  0
    1.7037   -3.2218   11.2887 C   0  0  0  0  0  0  0  0  0  0  0  0
    1.3671   -3.3231    9.9444 C   0  0  0  0  0  0  0  0  0  0  0  0
    2.5149   -1.9210   13.1323 N   0  0  0  0  0  0  0  0  0  0  0  0
    2.8985   -0.6217   13.6310 C   0  0  0  0  0  0  0  0  0  0  0  0
    4.3772   -0.5836   13.6466 C   0  0  0  0  0  0  0  0  0  0  0  0
    5.0250    0.5400   14.0763 C   0  0  0  0  0  0  0  0  0  0  0  0
    6.4130    0.5961   14.1009 C   0  0  0  0  0  0  0  0  0  0  0  0
    7.1584   -0.4953   13.6864 C   0  0  0  0  0  0  0  0  0  0  0  0
    6.5177   -1.6196   13.2561 C   0  0  0  0  0  0  0  0  0  0  0  0
    5.1441   -1.6720   13.2333 C   0  0  0  0  0  0  0  0  0  0  0  0
    2.4540   -3.0288   13.9693 C   0  0  0  0  0  0  0  0  0  0  0  0
    2.6294   -2.8270   15.2308 O   0  0  0  0  0  0  0  0  0  0  0  0
    2.2124   -4.3896   13.5503 C   0  0  0  0  0  0  0  0  0  0  0  0
    2.0985   -5.0124   12.3649 C   0  0  0  0  0  0  0  0  0  0  0  0
    1.8509   -6.3217   12.2919 C   0  0  0  0  0  0  0  0  0  0  0  0
    1.7107   -7.0453   13.4331 C   0  0  0  0  0  0  0  0  0  0  0  0
    1.9471   -5.7751   14.7525 S   0  0  0  0  0  0  0  0  0  0  0  0
    2.2301    0.0185    8.6745 C   0  0  0  0  0  0  0  0  0  0  0  0
    2.7071    1.0950    9.1126 O   0  0  0  0  0  0  0  0  0  0  0  0
    1.8890   -0.0754    7.3517 N   0  0  0  0  0  0  0  0  0  0  0  0
    2.1090    1.0011    6.4683 C   0  0  0  0  0  0  0  0  0  0  0  0
    1.3125    2.2156    6.5676 C   0  0  0  0  0  0  0  0  0  0  0  0
   -0.0296    2.1697    6.8135 C   0  0  0  0  0  0  0  0  0  0  0  0
   -0.7246    3.3742    6.9248 C   0  0  0  0  0  0  0  0  0  0  0  0
   -0.1065    4.5878    6.7971 C   0  0  0  0  0  0  0  0  0  0  0  0
    1.2514    4.5985    6.5489 C   0  0  0  0  0  0  0  0  0  0  0  0
    1.9343    3.4218    6.4395 C   0  0  0  0  0  0  0  0  0  0  0  0
   -0.7793    5.8815    6.9177 C   0  0  0  0  0  0  0  0  0  0  0  0
   -1.6962    6.2032    5.9457 C   0  0  0  0  0  0  0  0  0  0  0  0
   -2.3586    7.4067    6.0281 C   0  0  0  0  0  0  0  0  0  0  0  0
   -2.1323    8.2879    7.0436 C   0  0  0  0  0  0  0  0  0  0  0  0
   -1.2151    7.9473    8.0010 C   0  0  0  0  0  0  0  0  0  0  0  0
   -0.5227    6.7423    7.9577 C   0  0  0  0  0  0  0  0  0  0  0  0
    0.4499    6.4138    9.0034 C   0  0  0  0  0  0  0  0  0  0  0  0
    0.4338    5.3198    9.7567 N   0  0  0  0  0  0  0  0  0  0  0  0
    1.4587    5.3977   10.5726 N   0  0  0  0  0  0  0  0  0  0  0  0
    2.1149    6.5342   10.3326 N   0  0  0  0  0  0  0  0  0  0  0  0
    1.4840    7.1611    9.3569 N   0  0  0  0  0  0  0  0  0  0  0  0
  1  2  1  0
  2  3  1  0
  3  4  2  0
  4  5  1  0
  5  6  2  0
  6  7  1  0
  7  8  2  0
  8  9  1  0
  9 10  2  0
  8 11  1  0
 11 12  1  0
 12 13  1  0
 13 14  2  0
 14 15  1  0
 15 16  2  0
 16 17  1  0
 17 18  2  0
 11 19  1  0
 19 20  2  0
 19 21  1  0
 21 22  2  0
 22 23  1  0
 23 24  2  0
 24 25  1  0
  6 26  1  0
 26 27  2  0
 26 28  1  0
 28 29  1  0
 29 30  1  0
 30 31  2  0
 31 32  1  0
 32 33  2  0
 33 34  1  0
 34 35  2  0
 33 36  1  0
 36 37  2  0
 37 38  1  0
 38 39  2  0
 39 40  1  0
 40 41  2  0
 41 42  1  0
 42 43  2  0
 43 44  1  0
 44 45  1  0
 45 46  2  0
 28  3  1  0
 10  5  1  0
 18 13  1  0
 25 21  1  0
 35 30  1  0
 41 36  1  0
 46 42  1  0
M  END
$$$$
