
     RDKit          3D

 46 52  0  0  0  0  0  0  0  0999 V2000
    1.7137   -2.5985    5.6795 C   0  0  0  0  0  0  0  0  0  0  0  0
    0.8567   -1.5212    6.3538 C   0  0  0  0  0  0  0  0  0  0  0  0
    1.3094   -1.4456    7.7487 C   0  0  0  0  0  0  0  0  0  0  0  0
    0.8689   -2.4717    8.5534 N   0  0  0  0  0  0  0  0  0  0  0  0
    1.1869   -2.5685    9.8392 C   0  0  0  0  0  0  0  0  0  0  0  0
    1.9944   -1.5750   10.3422 C   0  0  0  0  0  0  0  0  0  0  0  0
    2.3266   -1.6466   11.6693 C   0  0  0  0  0  0  0  0  0  0  0  0
    1.8688   -2.6792   12.4730 C   0  0  0  0  0  0  0  0  0  0  0  0
    1.0532   -3.6790   11.9452 C   0  0  0  0  0  0  0  0  0  0  0  0
    0.7128   -3.6101   10.5998 C   0  0  0  0  0  0  0  0  0  0  0  0
    2.1629   -2.7463   13.8552 N   0  0  0  0  0  0  0  0  0  0  0  0
    3.1733   -3.6942   14.2607 C   0  0  0  0  0  0  0  0  0  0  0  0
    2.6350   -5.0444   13.9858 C   0  0  0  0  0  0  0  0  0  0  0  0
    1.4982   -5.4656   14.6158 C   0  0  0  0  0  0  0  0  0  0  0  0
    0.9747   -6.7289   14.3705 C   0  0  0  0  0  0  0  0  0  0  0  0
    1.6058   -7.5796   13.4779 C   0  0  0  0  0  0  0  0  0  0  0  0
    2.7410   -7.1651   12.8461 C   0  0  0  0  0  0  0  0  0  0  0  0
    3.2563   -5.9142   13.0908 C   0  0  0  0  0  0  0  0  0  0  0  0
    1.5000   -1.9527   14.7838 C   0  0  0  0  0  0  0  0  0  0  0  0
    1.7197   -2.1939   16.0314 O   0  0  0  0  0  0  0  0  0  0  0  0
    0.5835   -0.8803   14.4748 C   0  0  0  0  0  0  0  0  0  0  0  0
   -0.6891   -0.8116   14.0485 C   0  0  0  0  0  0  0  0  0  0  0  0
   -1.2835    0.3632   13.8302 C   0  0  0  0  0  0  0  0  0  0  0  0
   -0.5958    1.5155   14.0414 C   0  0  0  0  0  0  0  0  0  0  0  0
    1.0549    0.9076   14.6034 S   0  0  0  0  0  0  0  0  0  0  0  0
    2.4343   -0.5453    9.5196 C   0  0  0  0  0  0  0  0  0  0  0  0
    3.1740    0.3406   10.0160 O   0  0  0  0  0  0  0  0  0  0  0  0
    2.0913   -0.4694    8.1962 N   0  0  0  0  0  0  0  0  0  0  0  0
    2.5939    0.5607    7.3752 C   0  0  0  0  0  0  0  0  0  0  0  0
    2.0003    1.8896    7.4071 C   0  0  0  0  0  0  0  0  0  0  0  0
    0.6961    2.0963    7.0607 C   0  0  0  0  0  0  0  0  0  0  0  0
    0.1858    3.3921    7.1428 C   0  0  0  0  0  0  0  0  0  0  0  0
    0.9463    4.4509    7.5572 C   0  0  0  0  0  0  0  0  0  0  0  0
    2.2611    4.2072    7.9002 C   0  0  0  0  0  0  0  0  0  0  0  0
    2.7633    2.9405    7.8211 C   0  0  0  0  0  0  0  0  0  0  0  0
    0.4631    5.8268    7.6767 C   0  0  0  0  0  0  0  0  0  0  0  0
    1.2259    6.6959    8.4194 C   0  0  0  0  0  0  0  0  0  0  0  0
    0.8115    8.0018    8.5480 C   0  0  0  0  0  0  0  0  0  0  0  0
   -0.3316    8.4582    7.9614 C   0  0  0  0  0  0  0  0  0  0  0  0
   -1.0761    7.5758    7.2260 C   0  0  0  0  0  0  0  0  0  0  0  0
   -0.6956    6.2475    7.0694 C   0  0  0  0  0  0  0  0  0  0  0  0
   -1.5192    5.3346    6.2721 C   0  0  0  0  0  0  0  0  0  0  0  0
   -1.1631    4.7821    5.1178 N   0  0  0  0  0  0  0  0  0  0  0  0
   -2.1690    4.0399    4.7185 N   0  0  0  0  0  0  0  0  0  0  0  0
   -3.1511    4.1257    5.6174 N   0  0  0  0  0  0  0  0  0  0  0  0
   -2.7419    4.9310    6.5802 N   0  0  0  0  0  0  0  0  0  0  0  0
  1  2  1  0
  2  3  1  0
  3  4  2  0
  4  5  1  0
  5  6  2  0
  6  7  1  0
  7  8  2  0
  8  9  1  0
  9 10  2  0
  8 11  1  0
 11 12  1  0
 12 13  1  0
 13 14  2  0
 14 15  1  0
 15 16  2  0
 16 17  1  0
 17 18  2  0
 11 19  1  0
 19 20  2  0
 19 21  1  0
 21 22  2  0
 22 23  1  0
 23 24  2  0
 24 25  1  0
  6 26  1  0
 26 27  2  0
 26 28  1  0
 28 29  1  0
 29 30  1  0
 30 31  2  0
 31 32  1  0
 32 33  2  0
 33 34  1  0
 34 35  2  0
 33 36  1  0
 36 37  2  0
 37 38  1  0
 38 39  2  0
 39 40  1  0
 40 41  2  0
 41 42  1  0
 42 43  2  0
 43 44  1  0
 44 45  1  0
 45 46  2  0
 28  3  1  0
 10  5  1  0
 18 13  1  0
 25 21  1  0
 35 30  1  0
 41 36  1  0
 46 42  1  0
M  END
$$$$
