
     RDKit          3D

 18 19  0  0  0  0  0  0  0  0999 V2000
    5.3543    1.8355    5.1581 C   0  0  0  0  0  0  0  0  0  0  0  0
    4.3821    2.3981    6.1569 C   0  0  0  0  0  0  0  0  0  0  0  0
    4.6614    2.2194    7.3593 O   0  0  0  0  0  0  0  0  0  0  0  0
    3.2439    3.0749    5.7384 N   0  0  0  0  0  0  0  0  0  0  0  0
    2.2475    3.6291    6.5808 C   0  0  0  0  0  0  0  0  0  0  0  0
    2.5793    4.7786    7.4367 C   0  0  0  0  0  0  0  0  0  0  0  0
    1.5495    5.4978    8.1577 C   0  0  0  0  0  0  0  0  0  0  0  0
    0.9192    6.7020    7.8128 C   0  0  0  0  0  0  0  0  0  0  0  0
    0.0017    6.9874    8.7511 N   0  0  0  0  0  0  0  0  0  0  0  0
   -0.0125    6.0404    9.6995 C   0  0  0  0  0  0  0  0  0  0  0  0
    0.9390    5.1150    9.3442 C   0  0  0  0  0  0  0  0  0  0  0  0
    1.1304    4.0158   10.1695 C   0  0  0  0  0  0  0  0  0  0  0  0
    0.3916    3.8419   11.3221 C   0  0  0  0  0  0  0  0  0  0  0  0
   -0.5729    4.7732   11.6888 C   0  0  0  0  0  0  0  0  0  0  0  0
   -0.7605    5.8615   10.8691 C   0  0  0  0  0  0  0  0  0  0  0  0
    0.6506    2.7234   12.0759 O   0  0  0  0  0  0  0  0  0  0  0  0
    0.0948    2.4663   13.3442 C   0  0  0  0  0  0  0  0  0  0  0  0
    1.3785    7.8324    6.0923 I   0  0  0  0  0  0  0  0  0  0  0  0
  1  2  1  0
  2  3  2  0
  2  4  1  0
  4  5  1  0
  5  6  1  0
  6  7  1  0
  7  8  2  0
  8  9  1  0
  9 10  1  0
 10 11  2  0
 11 12  1  0
 12 13  2  0
 13 14  1  0
 14 15  2  0
 13 16  1  0
 16 17  1  0
  8 18  1  0
 11  7  1  0
 15 10  1  0
M  END
$$$$
