
     RDKit          3D

 18 19  0  0  0  0  0  0  0  0999 V2000
    4.3857    5.2239    4.7348 C   0  0  0  0  0  0  0  0  0  0  0  0
    3.7705    4.3734    5.8107 C   0  0  0  0  0  0  0  0  0  0  0  0
    4.5134    4.0693    6.7653 O   0  0  0  0  0  0  0  0  0  0  0  0
    2.4469    3.9624    5.7229 N   0  0  0  0  0  0  0  0  0  0  0  0
    1.7632    3.1494    6.6616 C   0  0  0  0  0  0  0  0  0  0  0  0
    2.4146    2.8095    7.9361 C   0  0  0  0  0  0  0  0  0  0  0  0
    1.6368    2.5630    9.1327 C   0  0  0  0  0  0  0  0  0  0  0  0
    1.0891    3.4940   10.0269 C   0  0  0  0  0  0  0  0  0  0  0  0
    0.4154    2.8268   10.9781 N   0  0  0  0  0  0  0  0  0  0  0  0
    0.4851    1.5053   10.7656 C   0  0  0  0  0  0  0  0  0  0  0  0
    1.2367    1.3297    9.6289 C   0  0  0  0  0  0  0  0  0  0  0  0
    1.4649    0.0356    9.1825 C   0  0  0  0  0  0  0  0  0  0  0  0
    0.9565   -1.0585    9.8524 C   0  0  0  0  0  0  0  0  0  0  0  0
    0.1951   -0.8898   11.0031 C   0  0  0  0  0  0  0  0  0  0  0  0
   -0.0294    0.3937   11.4431 C   0  0  0  0  0  0  0  0  0  0  0  0
    1.2340   -2.3005    9.3361 O   0  0  0  0  0  0  0  0  0  0  0  0
    0.8900   -3.5193    9.9527 C   0  0  0  0  0  0  0  0  0  0  0  0
    1.3190    5.5835    9.8542 I   0  0  0  0  0  0  0  0  0  0  0  0
  1  2  1  0
  2  3  2  0
  2  4  1  0
  4  5  1  0
  5  6  1  0
  6  7  1  0
  7  8  2  0
  8  9  1  0
  9 10  1  0
 10 11  2  0
 11 12  1  0
 12 13  2  0
 13 14  1  0
 14 15  2  0
 13 16  1  0
 16 17  1  0
  8 18  1  0
 11  7  1  0
 15 10  1  0
M  END
$$$$
