
     RDKit          3D

 18 19  0  0  0  0  0  0  0  0999 V2000
   -1.4012    0.1306    4.8259 C   0  0  0  0  0  0  0  0  0  0  0  0
   -0.0770    0.6751    5.2833 C   0  0  0  0  0  0  0  0  0  0  0  0
    0.7555   -0.1632    5.6829 O   0  0  0  0  0  0  0  0  0  0  0  0
    0.1800    2.0395    5.2530 N   0  0  0  0  0  0  0  0  0  0  0  0
    1.3886    2.6683    5.6449 C   0  0  0  0  0  0  0  0  0  0  0  0
    1.3373    3.9134    6.4268 C   0  0  0  0  0  0  0  0  0  0  0  0
    2.4040    4.2692    7.3396 C   0  0  0  0  0  0  0  0  0  0  0  0
    2.4474    4.1225    8.7335 C   0  0  0  0  0  0  0  0  0  0  0  0
    3.6421    4.5527    9.1708 N   0  0  0  0  0  0  0  0  0  0  0  0
    4.3942    4.9767    8.1456 C   0  0  0  0  0  0  0  0  0  0  0  0
    3.6406    4.8067    7.0094 C   0  0  0  0  0  0  0  0  0  0  0  0
    4.1934    5.1735    5.7904 C   0  0  0  0  0  0  0  0  0  0  0  0
    5.4671    5.6975    5.7046 C   0  0  0  0  0  0  0  0  0  0  0  0
    6.2363    5.8728    6.8490 C   0  0  0  0  0  0  0  0  0  0  0  0
    5.6860    5.5084    8.0557 C   0  0  0  0  0  0  0  0  0  0  0  0
    5.9302    6.0313    4.4554 O   0  0  0  0  0  0  0  0  0  0  0  0
    7.0102    6.9007    4.2077 C   0  0  0  0  0  0  0  0  0  0  0  0
    0.8670    3.3479    9.8957 I   0  0  0  0  0  0  0  0  0  0  0  0
  1  2  1  0
  2  3  2  0
  2  4  1  0
  4  5  1  0
  5  6  1  0
  6  7  1  0
  7  8  2  0
  8  9  1  0
  9 10  1  0
 10 11  2  0
 11 12  1  0
 12 13  2  0
 13 14  1  0
 14 15  2  0
 13 16  1  0
 16 17  1  0
  8 18  1  0
 11  7  1  0
 15 10  1  0
M  END
$$$$
