
     RDKit          3D

 18 19  0  0  0  0  0  0  0  0999 V2000
    7.0649    4.8730    6.7217 C   0  0  0  0  0  0  0  0  0  0  0  0
    5.5902    5.0639    6.5021 C   0  0  0  0  0  0  0  0  0  0  0  0
    5.1975    6.2422    6.3890 O   0  0  0  0  0  0  0  0  0  0  0  0
    4.7341    3.9725    6.4331 N   0  0  0  0  0  0  0  0  0  0  0  0
    3.3209    4.0273    6.3371 C   0  0  0  0  0  0  0  0  0  0  0  0
    2.5022    3.7473    7.5269 C   0  0  0  0  0  0  0  0  0  0  0  0
    1.3137    2.9241    7.4416 C   0  0  0  0  0  0  0  0  0  0  0  0
    0.0683    3.2418    6.8808 C   0  0  0  0  0  0  0  0  0  0  0  0
   -0.7345    2.1707    6.9898 N   0  0  0  0  0  0  0  0  0  0  0  0
   -0.0921    1.1598    7.5914 C   0  0  0  0  0  0  0  0  0  0  0  0
    1.1736    1.6128    7.8752 C   0  0  0  0  0  0  0  0  0  0  0  0
    2.0566    0.7493    8.5084 C   0  0  0  0  0  0  0  0  0  0  0  0
    1.6878   -0.5356    8.8511 C   0  0  0  0  0  0  0  0  0  0  0  0
    0.4093   -1.0018    8.5677 C   0  0  0  0  0  0  0  0  0  0  0  0
   -0.4635   -0.1440    7.9401 C   0  0  0  0  0  0  0  0  0  0  0  0
    2.6287   -1.3179    9.4747 O   0  0  0  0  0  0  0  0  0  0  0  0
    2.3935   -2.6183    9.9620 C   0  0  0  0  0  0  0  0  0  0  0  0
   -0.4059    5.1093    6.0228 I   0  0  0  0  0  0  0  0  0  0  0  0
  1  2  1  0
  2  3  2  0
  2  4  1  0
  4  5  1  0
  5  6  1  0
  6  7  1  0
  7  8  2  0
  8  9  1  0
  9 10  1  0
 10 11  2  0
 11 12  1  0
 12 13  2  0
 13 14  1  0
 14 15  2  0
 13 16  1  0
 16 17  1  0
  8 18  1  0
 11  7  1  0
 15 10  1  0
M  END
$$$$
