
     RDKit          3D

 18 19  0  0  0  0  0  0  0  0999 V2000
    5.7886    4.6994    4.5337 C   0  0  0  0  0  0  0  0  0  0  0  0
    5.2048    4.4427    5.8948 C   0  0  0  0  0  0  0  0  0  0  0  0
    6.0132    4.4082    6.8439 O   0  0  0  0  0  0  0  0  0  0  0  0
    3.8384    4.2573    6.0594 N   0  0  0  0  0  0  0  0  0  0  0  0
    3.1702    4.0357    7.2898 C   0  0  0  0  0  0  0  0  0  0  0  0
    1.7151    3.8192    7.2956 C   0  0  0  0  0  0  0  0  0  0  0  0
    0.9778    3.7174    8.5380 C   0  0  0  0  0  0  0  0  0  0  0  0
    0.5161    2.5643    9.1889 C   0  0  0  0  0  0  0  0  0  0  0  0
   -0.0893    2.9319   10.3300 N   0  0  0  0  0  0  0  0  0  0  0  0
   -0.0554    4.2640   10.4732 C   0  0  0  0  0  0  0  0  0  0  0  0
    0.6010    4.7604    9.3729 C   0  0  0  0  0  0  0  0  0  0  0  0
    0.7742    6.1338    9.2723 C   0  0  0  0  0  0  0  0  0  0  0  0
    0.3046    6.9931   10.2447 C   0  0  0  0  0  0  0  0  0  0  0  0
   -0.3605    6.4993   11.3609 C   0  0  0  0  0  0  0  0  0  0  0  0
   -0.5306    5.1380   11.4580 C   0  0  0  0  0  0  0  0  0  0  0  0
    0.5227    8.3363   10.0596 O   0  0  0  0  0  0  0  0  0  0  0  0
    0.3811    9.0087    8.8301 C   0  0  0  0  0  0  0  0  0  0  0  0
    0.7619    0.6043    8.4493 I   0  0  0  0  0  0  0  0  0  0  0  0
  1  2  1  0
  2  3  2  0
  2  4  1  0
  4  5  1  0
  5  6  1  0
  6  7  1  0
  7  8  2  0
  8  9  1  0
  9 10  1  0
 10 11  2  0
 11 12  1  0
 12 13  2  0
 13 14  1  0
 14 15  2  0
 13 16  1  0
 16 17  1  0
  8 18  1  0
 11  7  1  0
 15 10  1  0
M  END
$$$$
