
     RDKit          3D

 18 19  0  0  0  0  0  0  0  0999 V2000
    0.5347   -2.7561   10.4618 C   0  0  0  0  0  0  0  0  0  0  0  0
    1.4613   -1.6472   10.0482 C   0  0  0  0  0  0  0  0  0  0  0  0
    2.6698   -1.9426    9.9598 O   0  0  0  0  0  0  0  0  0  0  0  0
    0.9738   -0.3736    9.7853 N   0  0  0  0  0  0  0  0  0  0  0  0
    1.7366    0.7340    9.3372 C   0  0  0  0  0  0  0  0  0  0  0  0
    1.7490    1.0740    7.9060 C   0  0  0  0  0  0  0  0  0  0  0  0
    1.5251    2.4325    7.4567 C   0  0  0  0  0  0  0  0  0  0  0  0
    0.3122    3.0581    7.1342 C   0  0  0  0  0  0  0  0  0  0  0  0
    0.5661    4.3332    6.7973 N   0  0  0  0  0  0  0  0  0  0  0  0
    1.8793    4.5892    6.8780 C   0  0  0  0  0  0  0  0  0  0  0  0
    2.4821    3.4232    7.2843 C   0  0  0  0  0  0  0  0  0  0  0  0
    3.8602    3.4157    7.4482 C   0  0  0  0  0  0  0  0  0  0  0  0
    4.6207    4.5430    7.2130 C   0  0  0  0  0  0  0  0  0  0  0  0
    4.0188    5.7266    6.8018 C   0  0  0  0  0  0  0  0  0  0  0  0
    2.6530    5.7312    6.6403 C   0  0  0  0  0  0  0  0  0  0  0  0
    5.9771    4.4408    7.4019 O   0  0  0  0  0  0  0  0  0  0  0  0
    6.9481    5.0390    6.5753 C   0  0  0  0  0  0  0  0  0  0  0  0
   -1.5677    2.1032    7.1883 I   0  0  0  0  0  0  0  0  0  0  0  0
  1  2  1  0
  2  3  2  0
  2  4  1  0
  4  5  1  0
  5  6  1  0
  6  7  1  0
  7  8  2  0
  8  9  1  0
  9 10  1  0
 10 11  2  0
 11 12  1  0
 12 13  2  0
 13 14  1  0
 14 15  2  0
 13 16  1  0
 16 17  1  0
  8 18  1  0
 11  7  1  0
 15 10  1  0
M  END
$$$$
