
     RDKit          3D

 18 19  0  0  0  0  0  0  0  0999 V2000
    0.4571   -3.0567   10.0162 C   0  0  0  0  0  0  0  0  0  0  0  0
    1.3795   -2.0178    9.4425 C   0  0  0  0  0  0  0  0  0  0  0  0
    2.5993   -2.2008    9.6276 O   0  0  0  0  0  0  0  0  0  0  0  0
    0.8764   -0.9244    8.7495 N   0  0  0  0  0  0  0  0  0  0  0  0
    1.6439    0.0902    8.1241 C   0  0  0  0  0  0  0  0  0  0  0  0
    1.5145    1.4824    8.5813 C   0  0  0  0  0  0  0  0  0  0  0  0
    1.3131    2.5645    7.6400 C   0  0  0  0  0  0  0  0  0  0  0  0
    0.1216    2.9823    7.0299 C   0  0  0  0  0  0  0  0  0  0  0  0
    0.3895    4.0451    6.2538 N   0  0  0  0  0  0  0  0  0  0  0  0
    1.6918    4.3564    6.3145 C   0  0  0  0  0  0  0  0  0  0  0  0
    2.2727    3.4492    7.1674 C   0  0  0  0  0  0  0  0  0  0  0  0
    3.6358    3.5498    7.4083 C   0  0  0  0  0  0  0  0  0  0  0  0
    4.4028    4.5309    6.8138 C   0  0  0  0  0  0  0  0  0  0  0  0
    3.8231    5.4527    5.9498 C   0  0  0  0  0  0  0  0  0  0  0  0
    2.4721    5.3507    5.7129 C   0  0  0  0  0  0  0  0  0  0  0  0
    5.7432    4.5526    7.1121 O   0  0  0  0  0  0  0  0  0  0  0  0
    6.4608    3.4682    7.6534 C   0  0  0  0  0  0  0  0  0  0  0  0
   -1.7504    2.0554    7.3217 I   0  0  0  0  0  0  0  0  0  0  0  0
  1  2  1  0
  2  3  2  0
  2  4  1  0
  4  5  1  0
  5  6  1  0
  6  7  1  0
  7  8  2  0
  8  9  1  0
  9 10  1  0
 10 11  2  0
 11 12  1  0
 12 13  2  0
 13 14  1  0
 14 15  2  0
 13 16  1  0
 16 17  1  0
  8 18  1  0
 11  7  1  0
 15 10  1  0
M  END
$$$$
