
     RDKit          3D

 18 19  0  0  0  0  0  0  0  0999 V2000
    6.2744    6.0550    6.0094 C   0  0  0  0  0  0  0  0  0  0  0  0
    5.3589    5.1582    6.7949 C   0  0  0  0  0  0  0  0  0  0  0  0
    5.3228    5.3500    8.0268 O   0  0  0  0  0  0  0  0  0  0  0  0
    4.6062    4.1785    6.1606 N   0  0  0  0  0  0  0  0  0  0  0  0
    3.9710    3.0785    6.7899 C   0  0  0  0  0  0  0  0  0  0  0  0
    2.8764    3.3214    7.7423 C   0  0  0  0  0  0  0  0  0  0  0  0
    1.6128    2.6235    7.6251 C   0  0  0  0  0  0  0  0  0  0  0  0
    0.4252    3.0606    7.0209 C   0  0  0  0  0  0  0  0  0  0  0  0
   -0.4867    2.0789    7.1128 N   0  0  0  0  0  0  0  0  0  0  0  0
    0.0287    1.0148    7.7440 C   0  0  0  0  0  0  0  0  0  0  0  0
    1.3247    1.3389    8.0653 C   0  0  0  0  0  0  0  0  0  0  0  0
    2.0935    0.3971    8.7348 C   0  0  0  0  0  0  0  0  0  0  0  0
    1.5836   -0.8389    9.0765 C   0  0  0  0  0  0  0  0  0  0  0  0
    0.2736   -1.1749    8.7552 C   0  0  0  0  0  0  0  0  0  0  0  0
   -0.4858   -0.2397    8.0917 C   0  0  0  0  0  0  0  0  0  0  0  0
    2.4186   -1.7061    9.7375 O   0  0  0  0  0  0  0  0  0  0  0  0
    2.0013   -2.8916   10.3734 C   0  0  0  0  0  0  0  0  0  0  0  0
    0.1734    4.9564    6.1314 I   0  0  0  0  0  0  0  0  0  0  0  0
  1  2  1  0
  2  3  2  0
  2  4  1  0
  4  5  1  0
  5  6  1  0
  6  7  1  0
  7  8  2  0
  8  9  1  0
  9 10  1  0
 10 11  2  0
 11 12  1  0
 12 13  2  0
 13 14  1  0
 14 15  2  0
 13 16  1  0
 16 17  1  0
  8 18  1  0
 11  7  1  0
 15 10  1  0
M  END
$$$$
