
     RDKit          3D

 18 19  0  0  0  0  0  0  0  0999 V2000
    4.3365    0.8320    7.5436 C   0  0  0  0  0  0  0  0  0  0  0  0
    4.3650    2.1892    6.8982 C   0  0  0  0  0  0  0  0  0  0  0  0
    5.4907    2.7049    6.7484 O   0  0  0  0  0  0  0  0  0  0  0  0
    3.1896    2.8126    6.5002 N   0  0  0  0  0  0  0  0  0  0  0  0
    3.0899    4.0812    5.8755 C   0  0  0  0  0  0  0  0  0  0  0  0
    3.1339    5.2998    6.6985 C   0  0  0  0  0  0  0  0  0  0  0  0
    1.9236    5.8814    7.2411 C   0  0  0  0  0  0  0  0  0  0  0  0
    1.1175    6.8906    6.6951 C   0  0  0  0  0  0  0  0  0  0  0  0
    0.0764    7.0970    7.5180 N   0  0  0  0  0  0  0  0  0  0  0  0
    0.1459    6.2816    8.5794 C   0  0  0  0  0  0  0  0  0  0  0  0
    1.2824    5.5260    8.4199 C   0  0  0  0  0  0  0  0  0  0  0  0
    1.5932    4.5884    9.3948 C   0  0  0  0  0  0  0  0  0  0  0  0
    0.7910    4.4074   10.5031 C   0  0  0  0  0  0  0  0  0  0  0  0
   -0.3604    5.1675   10.6722 C   0  0  0  0  0  0  0  0  0  0  0  0
   -0.6659    6.0958    9.7045 C   0  0  0  0  0  0  0  0  0  0  0  0
    1.1784    3.4561   11.4148 O   0  0  0  0  0  0  0  0  0  0  0  0
    0.6819    3.3575   12.7291 C   0  0  0  0  0  0  0  0  0  0  0  0
    1.5241    7.8827    4.8788 I   0  0  0  0  0  0  0  0  0  0  0  0
  1  2  1  0
  2  3  2  0
  2  4  1  0
  4  5  1  0
  5  6  1  0
  6  7  1  0
  7  8  2  0
  8  9  1  0
  9 10  1  0
 10 11  2  0
 11 12  1  0
 12 13  2  0
 13 14  1  0
 14 15  2  0
 13 16  1  0
 16 17  1  0
  8 18  1  0
 11  7  1  0
 15 10  1  0
M  END
$$$$
