
     RDKit          3D

 18 19  0  0  0  0  0  0  0  0999 V2000
    6.3717    2.6308    5.8104 C   0  0  0  0  0  0  0  0  0  0  0  0
    5.2093    3.5827    5.7665 C   0  0  0  0  0  0  0  0  0  0  0  0
    4.8453    3.9567    4.6337 O   0  0  0  0  0  0  0  0  0  0  0  0
    4.5926    4.0070    6.9363 N   0  0  0  0  0  0  0  0  0  0  0  0
    3.5086    4.9162    7.0239 C   0  0  0  0  0  0  0  0  0  0  0  0
    2.1298    4.4106    6.9381 C   0  0  0  0  0  0  0  0  0  0  0  0
    1.2312    4.4892    8.0712 C   0  0  0  0  0  0  0  0  0  0  0  0
    0.4667    5.5810    8.5069 C   0  0  0  0  0  0  0  0  0  0  0  0
   -0.2488    5.2007    9.5779 N   0  0  0  0  0  0  0  0  0  0  0  0
   -0.0023    3.9178    9.8776 C   0  0  0  0  0  0  0  0  0  0  0  0
    0.9101    3.4674    8.9543 C   0  0  0  0  0  0  0  0  0  0  0  0
    1.3409    2.1509    9.0408 C   0  0  0  0  0  0  0  0  0  0  0  0
    0.8741    1.3025   10.0240 C   0  0  0  0  0  0  0  0  0  0  0  0
   -0.0490    1.7500   10.9620 C   0  0  0  0  0  0  0  0  0  0  0  0
   -0.4742    3.0550   10.8738 C   0  0  0  0  0  0  0  0  0  0  0  0
    1.3570    0.0168   10.0306 O   0  0  0  0  0  0  0  0  0  0  0  0
    1.0080   -0.9648   10.9784 C   0  0  0  0  0  0  0  0  0  0  0  0
    0.4801    7.4809    7.5909 I   0  0  0  0  0  0  0  0  0  0  0  0
  1  2  1  0
  2  3  2  0
  2  4  1  0
  4  5  1  0
  5  6  1  0
  6  7  1  0
  7  8  2  0
  8  9  1  0
  9 10  1  0
 10 11  2  0
 11 12  1  0
 12 13  2  0
 13 14  1  0
 14 15  2  0
 13 16  1  0
 16 17  1  0
  8 18  1  0
 11  7  1  0
 15 10  1  0
M  END
$$$$
