
     RDKit          3D

 18 19  0  0  0  0  0  0  0  0999 V2000
    6.6947    3.3478    5.3977 C   0  0  0  0  0  0  0  0  0  0  0  0
    5.6917    4.0804    6.2441 C   0  0  0  0  0  0  0  0  0  0  0  0
    6.1131    4.5415    7.3236 O   0  0  0  0  0  0  0  0  0  0  0  0
    4.3752    4.2218    5.8250 N   0  0  0  0  0  0  0  0  0  0  0  0
    3.3820    5.0148    6.4527 C   0  0  0  0  0  0  0  0  0  0  0  0
    2.8498    4.6074    7.7623 C   0  0  0  0  0  0  0  0  0  0  0  0
    1.4492    4.7790    8.0882 C   0  0  0  0  0  0  0  0  0  0  0  0
    0.3989    3.8612    7.9437 C   0  0  0  0  0  0  0  0  0  0  0  0
   -0.7290    4.4277    8.4026 N   0  0  0  0  0  0  0  0  0  0  0  0
   -0.4866    5.6699    8.8435 C   0  0  0  0  0  0  0  0  0  0  0  0
    0.8551    5.8985    8.6547 C   0  0  0  0  0  0  0  0  0  0  0  0
    1.3741    7.1288    9.0330 C   0  0  0  0  0  0  0  0  0  0  0  0
    0.5758    8.1089    9.5866 C   0  0  0  0  0  0  0  0  0  0  0  0
   -0.7824    7.8859    9.7811 C   0  0  0  0  0  0  0  0  0  0  0  0
   -1.2940    6.6658    9.4053 C   0  0  0  0  0  0  0  0  0  0  0  0
    1.1777    9.2945    9.9304 O   0  0  0  0  0  0  0  0  0  0  0  0
    0.6587   10.2158   10.8607 C   0  0  0  0  0  0  0  0  0  0  0  0
    0.6162    1.9260    7.1334 I   0  0  0  0  0  0  0  0  0  0  0  0
  1  2  1  0
  2  3  2  0
  2  4  1  0
  4  5  1  0
  5  6  1  0
  6  7  1  0
  7  8  2  0
  8  9  1  0
  9 10  1  0
 10 11  2  0
 11 12  1  0
 12 13  2  0
 13 14  1  0
 14 15  2  0
 13 16  1  0
 16 17  1  0
  8 18  1  0
 11  7  1  0
 15 10  1  0
M  END
$$$$
