
     RDKit          3D

 18 19  0  0  0  0  0  0  0  0999 V2000
    1.5139   -2.7771   10.4160 C   0  0  0  0  0  0  0  0  0  0  0  0
    1.4348   -1.4981    9.6303 C   0  0  0  0  0  0  0  0  0  0  0  0
    0.6590   -1.4980    8.6538 O   0  0  0  0  0  0  0  0  0  0  0  0
    2.1937   -0.3928    9.9922 N   0  0  0  0  0  0  0  0  0  0  0  0
    2.2764    0.8301    9.2799 C   0  0  0  0  0  0  0  0  0  0  0  0
    1.0466    1.5812    8.9842 C   0  0  0  0  0  0  0  0  0  0  0  0
    1.0099    3.0259    9.0798 C   0  0  0  0  0  0  0  0  0  0  0  0
    0.3772    3.8226   10.0450 C   0  0  0  0  0  0  0  0  0  0  0  0
    0.6302    5.1118    9.7666 N   0  0  0  0  0  0  0  0  0  0  0  0
    1.3952    5.2158    8.6710 C   0  0  0  0  0  0  0  0  0  0  0  0
    1.6364    3.9344    8.2377 C   0  0  0  0  0  0  0  0  0  0  0  0
    2.4154    3.7576    7.1028 C   0  0  0  0  0  0  0  0  0  0  0  0
    2.9421    4.8318    6.4151 C   0  0  0  0  0  0  0  0  0  0  0  0
    2.7030    6.1314    6.8465 C   0  0  0  0  0  0  0  0  0  0  0  0
    1.9308    6.3036    7.9715 C   0  0  0  0  0  0  0  0  0  0  0  0
    3.7010    4.5596    5.3033 O   0  0  0  0  0  0  0  0  0  0  0  0
    4.2474    5.5361    4.4479 C   0  0  0  0  0  0  0  0  0  0  0  0
   -0.7681    3.0641   11.6455 I   0  0  0  0  0  0  0  0  0  0  0  0
  1  2  1  0
  2  3  2  0
  2  4  1  0
  4  5  1  0
  5  6  1  0
  6  7  1  0
  7  8  2  0
  8  9  1  0
  9 10  1  0
 10 11  2  0
 11 12  1  0
 12 13  2  0
 13 14  1  0
 14 15  2  0
 13 16  1  0
 16 17  1  0
  8 18  1  0
 11  7  1  0
 15 10  1  0
M  END
$$$$
