
     RDKit          3D

 18 19  0  0  0  0  0  0  0  0999 V2000
    2.2262   -0.5246    9.0857 C   0  0  0  0  0  0  0  0  0  0  0  0
    3.0430    0.4678    8.3064 C   0  0  0  0  0  0  0  0  0  0  0  0
    4.2807    0.3861    8.4360 O   0  0  0  0  0  0  0  0  0  0  0  0
    2.4293    1.4131    7.4948 N   0  0  0  0  0  0  0  0  0  0  0  0
    3.0840    2.2793    6.5834 C   0  0  0  0  0  0  0  0  0  0  0  0
    2.2946    3.2560    5.8173 C   0  0  0  0  0  0  0  0  0  0  0  0
    1.6629    4.3848    6.4687 C   0  0  0  0  0  0  0  0  0  0  0  0
    0.3015    4.5921    6.7334 C   0  0  0  0  0  0  0  0  0  0  0  0
    0.1664    5.7585    7.3853 N   0  0  0  0  0  0  0  0  0  0  0  0
    1.3615    6.3371    7.5682 C   0  0  0  0  0  0  0  0  0  0  0  0
    2.2936    5.4983    7.0065 C   0  0  0  0  0  0  0  0  0  0  0  0
    3.6303    5.8681    7.0593 C   0  0  0  0  0  0  0  0  0  0  0  0
    4.0296    7.0459    7.6575 C   0  0  0  0  0  0  0  0  0  0  0  0
    3.0932    7.9001    8.2281 C   0  0  0  0  0  0  0  0  0  0  0  0
    1.7694    7.5311    8.1744 C   0  0  0  0  0  0  0  0  0  0  0  0
    5.3737    7.3281    7.6620 O   0  0  0  0  0  0  0  0  0  0  0  0
    6.3883    6.3890    7.9312 C   0  0  0  0  0  0  0  0  0  0  0  0
   -1.2333    3.2571    6.1759 I   0  0  0  0  0  0  0  0  0  0  0  0
  1  2  1  0
  2  3  2  0
  2  4  1  0
  4  5  1  0
  5  6  1  0
  6  7  1  0
  7  8  2  0
  8  9  1  0
  9 10  1  0
 10 11  2  0
 11 12  1  0
 12 13  2  0
 13 14  1  0
 14 15  2  0
 13 16  1  0
 16 17  1  0
  8 18  1  0
 11  7  1  0
 15 10  1  0
M  END
$$$$
