
     RDKit          3D

 18 19  0  0  0  0  0  0  0  0999 V2000
    2.8044    8.9053    6.5374 C   0  0  0  0  0  0  0  0  0  0  0  0
    2.9174    7.4889    6.0472 C   0  0  0  0  0  0  0  0  0  0  0  0
    4.0321    7.1454    5.6057 O   0  0  0  0  0  0  0  0  0  0  0  0
    1.8265    6.6307    6.0941 N   0  0  0  0  0  0  0  0  0  0  0  0
    1.7544    5.3425    5.5068 C   0  0  0  0  0  0  0  0  0  0  0  0
    2.5163    4.2322    6.0993 C   0  0  0  0  0  0  0  0  0  0  0  0
    1.8446    3.1190    6.7371 C   0  0  0  0  0  0  0  0  0  0  0  0
    0.4892    2.7642    6.6761 C   0  0  0  0  0  0  0  0  0  0  0  0
    0.3094    1.6418    7.3913 N   0  0  0  0  0  0  0  0  0  0  0  0
    1.4689    1.2315    7.9236 C   0  0  0  0  0  0  0  0  0  0  0  0
    2.4245    2.1355    7.5268 C   0  0  0  0  0  0  0  0  0  0  0  0
    3.7325    1.9401    7.9477 C   0  0  0  0  0  0  0  0  0  0  0  0
    4.0810    0.8692    8.7454 C   0  0  0  0  0  0  0  0  0  0  0  0
    3.1206   -0.0500    9.1513 C   0  0  0  0  0  0  0  0  0  0  0  0
    1.8253    0.1461    8.7326 C   0  0  0  0  0  0  0  0  0  0  0  0
    5.3998    0.7573    9.1121 O   0  0  0  0  0  0  0  0  0  0  0  0
    5.9112   -0.2366    9.9690 C   0  0  0  0  0  0  0  0  0  0  0  0
   -0.9766    3.8524    5.6197 I   0  0  0  0  0  0  0  0  0  0  0  0
  1  2  1  0
  2  3  2  0
  2  4  1  0
  4  5  1  0
  5  6  1  0
  6  7  1  0
  7  8  2  0
  8  9  1  0
  9 10  1  0
 10 11  2  0
 11 12  1  0
 12 13  2  0
 13 14  1  0
 14 15  2  0
 13 16  1  0
 16 17  1  0
  8 18  1  0
 11  7  1  0
 15 10  1  0
M  END
$$$$
