
     RDKit          3D

 18 19  0  0  0  0  0  0  0  0999 V2000
   -0.4691   -0.7159    3.2119 C   0  0  0  0  0  0  0  0  0  0  0  0
   -0.0639   -0.6888    4.6592 C   0  0  0  0  0  0  0  0  0  0  0  0
    0.5512   -1.6895    5.0783 O   0  0  0  0  0  0  0  0  0  0  0  0
   -0.3696    0.4015    5.4632 N   0  0  0  0  0  0  0  0  0  0  0  0
   -0.0394    0.5437    6.8345 C   0  0  0  0  0  0  0  0  0  0  0  0
    1.2954    1.0339    7.2115 C   0  0  0  0  0  0  0  0  0  0  0  0
    1.4542    2.1593    8.1092 C   0  0  0  0  0  0  0  0  0  0  0  0
    1.3105    2.1925    9.5037 C   0  0  0  0  0  0  0  0  0  0  0  0
    1.5828    3.4362    9.9312 N   0  0  0  0  0  0  0  0  0  0  0  0
    1.8992    4.2304    8.8989 C   0  0  0  0  0  0  0  0  0  0  0  0
    1.8233    3.4533    7.7683 C   0  0  0  0  0  0  0  0  0  0  0  0
    2.1075    4.0413    6.5437 C   0  0  0  0  0  0  0  0  0  0  0  0
    2.4591    5.3722    6.4469 C   0  0  0  0  0  0  0  0  0  0  0  0
    2.5383    6.1654    7.5857 C   0  0  0  0  0  0  0  0  0  0  0  0
    2.2562    5.5802    8.7979 C   0  0  0  0  0  0  0  0  0  0  0  0
    2.7228    5.8665    5.1930 O   0  0  0  0  0  0  0  0  0  0  0  0
    2.9542    7.2246    4.8999 C   0  0  0  0  0  0  0  0  0  0  0  0
    0.7566    0.5319   10.6803 I   0  0  0  0  0  0  0  0  0  0  0  0
  1  2  1  0
  2  3  2  0
  2  4  1  0
  4  5  1  0
  5  6  1  0
  6  7  1  0
  7  8  2  0
  8  9  1  0
  9 10  1  0
 10 11  2  0
 11 12  1  0
 12 13  2  0
 13 14  1  0
 14 15  2  0
 13 16  1  0
 16 17  1  0
  8 18  1  0
 11  7  1  0
 15 10  1  0
M  END
$$$$
