
     RDKit          3D

 18 19  0  0  0  0  0  0  0  0999 V2000
    6.1517    5.3865    5.1072 C   0  0  0  0  0  0  0  0  0  0  0  0
    5.3153    4.3169    5.7521 C   0  0  0  0  0  0  0  0  0  0  0  0
    5.3314    3.1977    5.2019 O   0  0  0  0  0  0  0  0  0  0  0  0
    4.5749    4.5857    6.8959 N   0  0  0  0  0  0  0  0  0  0  0  0
    3.7645    3.6601    7.6000 C   0  0  0  0  0  0  0  0  0  0  0  0
    2.3015    3.7242    7.4596 C   0  0  0  0  0  0  0  0  0  0  0  0
    1.4455    3.9088    8.6131 C   0  0  0  0  0  0  0  0  0  0  0  0
    0.8722    2.9334    9.4416 C   0  0  0  0  0  0  0  0  0  0  0  0
    0.1782    3.5514   10.4112 N   0  0  0  0  0  0  0  0  0  0  0  0
    0.2587    4.8821   10.2731 C   0  0  0  0  0  0  0  0  0  0  0  0
    1.0387    5.1153    9.1662 C   0  0  0  0  0  0  0  0  0  0  0  0
    1.2827    6.4305    8.7966 C   0  0  0  0  0  0  0  0  0  0  0  0
    0.7622    7.4893    9.5125 C   0  0  0  0  0  0  0  0  0  0  0  0
   -0.0278    7.2623   10.6335 C   0  0  0  0  0  0  0  0  0  0  0  0
   -0.2679    5.9579   10.9975 C   0  0  0  0  0  0  0  0  0  0  0  0
    1.0576    8.7561    9.0718 O   0  0  0  0  0  0  0  0  0  0  0  0
    0.2495    9.8888    9.2904 C   0  0  0  0  0  0  0  0  0  0  0  0
    1.0981    0.8552    9.1610 I   0  0  0  0  0  0  0  0  0  0  0  0
  1  2  1  0
  2  3  2  0
  2  4  1  0
  4  5  1  0
  5  6  1  0
  6  7  1  0
  7  8  2  0
  8  9  1  0
  9 10  1  0
 10 11  2  0
 11 12  1  0
 12 13  2  0
 13 14  1  0
 14 15  2  0
 13 16  1  0
 16 17  1  0
  8 18  1  0
 11  7  1  0
 15 10  1  0
M  END
$$$$
