
     RDKit          3D

 18 19  0  0  0  0  0  0  0  0999 V2000
    7.4983    5.7592    7.6046 C   0  0  0  0  0  0  0  0  0  0  0  0
    6.0577    5.7640    7.1754 C   0  0  0  0  0  0  0  0  0  0  0  0
    5.4460    6.8426    7.3099 O   0  0  0  0  0  0  0  0  0  0  0  0
    5.4647    4.6183    6.6613 N   0  0  0  0  0  0  0  0  0  0  0  0
    4.1285    4.5069    6.2012 C   0  0  0  0  0  0  0  0  0  0  0  0
    3.4410    3.2086    6.2792 C   0  0  0  0  0  0  0  0  0  0  0  0
    2.2595    3.0346    7.0985 C   0  0  0  0  0  0  0  0  0  0  0  0
    1.1039    3.8275    7.1462 C   0  0  0  0  0  0  0  0  0  0  0  0
    0.2464    3.2796    8.0225 N   0  0  0  0  0  0  0  0  0  0  0  0
    0.7676    2.1676    8.5592 C   0  0  0  0  0  0  0  0  0  0  0  0
    2.0106    2.0057    7.9965 C   0  0  0  0  0  0  0  0  0  0  0  0
    2.7737    0.9138    8.3859 C   0  0  0  0  0  0  0  0  0  0  0  0
    2.3100    0.0041    9.3142 C   0  0  0  0  0  0  0  0  0  0  0  0
    1.0537    0.1603    9.8883 C   0  0  0  0  0  0  0  0  0  0  0  0
    0.2997    1.2432    9.5005 C   0  0  0  0  0  0  0  0  0  0  0  0
    3.1351   -1.0451    9.6375 O   0  0  0  0  0  0  0  0  0  0  0  0
    2.7024   -2.2576   10.2088 C   0  0  0  0  0  0  0  0  0  0  0  0
    0.8178    5.5791    6.0064 I   0  0  0  0  0  0  0  0  0  0  0  0
  1  2  1  0
  2  3  2  0
  2  4  1  0
  4  5  1  0
  5  6  1  0
  6  7  1  0
  7  8  2  0
  8  9  1  0
  9 10  1  0
 10 11  2  0
 11 12  1  0
 12 13  2  0
 13 14  1  0
 14 15  2  0
 13 16  1  0
 16 17  1  0
  8 18  1  0
 11  7  1  0
 15 10  1  0
M  END
$$$$
