
     RDKit          3D

 18 19  0  0  0  0  0  0  0  0999 V2000
    0.6873   -1.2867   10.5646 C   0  0  0  0  0  0  0  0  0  0  0  0
    1.4929   -0.2846    9.7862 C   0  0  0  0  0  0  0  0  0  0  0  0
    2.0958   -0.7200    8.7849 O   0  0  0  0  0  0  0  0  0  0  0  0
    1.5468    1.0458   10.1809 N   0  0  0  0  0  0  0  0  0  0  0  0
    2.2304    2.0879    9.5054 C   0  0  0  0  0  0  0  0  0  0  0  0
    1.6768    2.6251    8.2528 C   0  0  0  0  0  0  0  0  0  0  0  0
    2.1754    3.8591    7.6818 C   0  0  0  0  0  0  0  0  0  0  0  0
    3.0829    4.0305    6.6266 C   0  0  0  0  0  0  0  0  0  0  0  0
    3.2363    5.3462    6.4051 N   0  0  0  0  0  0  0  0  0  0  0  0
    2.4818    6.0579    7.2539 C   0  0  0  0  0  0  0  0  0  0  0  0
    1.8218    5.1508    8.0474 C   0  0  0  0  0  0  0  0  0  0  0  0
    0.9627    5.6323    9.0253 C   0  0  0  0  0  0  0  0  0  0  0  0
    0.7652    6.9857    9.2090 C   0  0  0  0  0  0  0  0  0  0  0  0
    1.4287    7.9101    8.4106 C   0  0  0  0  0  0  0  0  0  0  0  0
    2.2794    7.4301    7.4423 C   0  0  0  0  0  0  0  0  0  0  0  0
   -0.1039    7.3685   10.2011 O   0  0  0  0  0  0  0  0  0  0  0  0
   -0.9246    8.5119   10.1496 C   0  0  0  0  0  0  0  0  0  0  0  0
    4.0189    2.4458    5.5963 I   0  0  0  0  0  0  0  0  0  0  0  0
  1  2  1  0
  2  3  2  0
  2  4  1  0
  4  5  1  0
  5  6  1  0
  6  7  1  0
  7  8  2  0
  8  9  1  0
  9 10  1  0
 10 11  2  0
 11 12  1  0
 12 13  2  0
 13 14  1  0
 14 15  2  0
 13 16  1  0
 16 17  1  0
  8 18  1  0
 11  7  1  0
 15 10  1  0
M  END
$$$$
