
     RDKit          3D

 18 19  0  0  0  0  0  0  0  0999 V2000
    1.7685   -2.3549   10.1879 C   0  0  0  0  0  0  0  0  0  0  0  0
    1.4971   -0.9056    9.8961 C   0  0  0  0  0  0  0  0  0  0  0  0
    1.9167   -0.0858   10.7372 O   0  0  0  0  0  0  0  0  0  0  0  0
    0.8148   -0.5269    8.7473 N   0  0  0  0  0  0  0  0  0  0  0  0
    0.4846    0.8002    8.3741 C   0  0  0  0  0  0  0  0  0  0  0  0
    0.9683    1.3341    7.0915 C   0  0  0  0  0  0  0  0  0  0  0  0
    1.0506    2.7610    6.8572 C   0  0  0  0  0  0  0  0  0  0  0  0
    0.0099    3.6682    6.6115 C   0  0  0  0  0  0  0  0  0  0  0  0
    0.5362    4.8973    6.4851 N   0  0  0  0  0  0  0  0  0  0  0  0
    1.8677    4.8570    6.6332 C   0  0  0  0  0  0  0  0  0  0  0  0
    2.1974    3.5432    6.8635 C   0  0  0  0  0  0  0  0  0  0  0  0
    3.5342    3.2223    7.0535 C   0  0  0  0  0  0  0  0  0  0  0  0
    4.5200    4.1872    7.0152 C   0  0  0  0  0  0  0  0  0  0  0  0
    4.1952    5.5186    6.7828 C   0  0  0  0  0  0  0  0  0  0  0  0
    2.8697    5.8338    6.5949 C   0  0  0  0  0  0  0  0  0  0  0  0
    5.8150    3.7756    7.2145 O   0  0  0  0  0  0  0  0  0  0  0  0
    6.9553    4.5459    6.9144 C   0  0  0  0  0  0  0  0  0  0  0  0
   -2.0254    3.1318    6.4744 I   0  0  0  0  0  0  0  0  0  0  0  0
  1  2  1  0
  2  3  2  0
  2  4  1  0
  4  5  1  0
  5  6  1  0
  6  7  1  0
  7  8  2  0
  8  9  1  0
  9 10  1  0
 10 11  2  0
 11 12  1  0
 12 13  2  0
 13 14  1  0
 14 15  2  0
 13 16  1  0
 16 17  1  0
  8 18  1  0
 11  7  1  0
 15 10  1  0
M  END
$$$$
