
     RDKit          3D

 18 19  0  0  0  0  0  0  0  0999 V2000
    2.6328   -3.1955    9.9663 C   0  0  0  0  0  0  0  0  0  0  0  0
    1.8017   -2.0197    9.5352 C   0  0  0  0  0  0  0  0  0  0  0  0
    0.5902   -2.2427    9.3403 O   0  0  0  0  0  0  0  0  0  0  0  0
    2.3750   -0.7656    9.3700 N   0  0  0  0  0  0  0  0  0  0  0  0
    1.6989    0.4123    8.9637 C   0  0  0  0  0  0  0  0  0  0  0  0
    1.5007    0.6762    7.5301 C   0  0  0  0  0  0  0  0  0  0  0  0
    1.3188    2.0250    7.0348 C   0  0  0  0  0  0  0  0  0  0  0  0
    0.1225    2.6928    6.7360 C   0  0  0  0  0  0  0  0  0  0  0  0
    0.4186    3.9406    6.3371 N   0  0  0  0  0  0  0  0  0  0  0  0
    1.7440    4.1386    6.3543 C   0  0  0  0  0  0  0  0  0  0  0  0
    2.3109    2.9629    6.7834 C   0  0  0  0  0  0  0  0  0  0  0  0
    3.6930    2.8981    6.8918 C   0  0  0  0  0  0  0  0  0  0  0  0
    4.4923    3.9790    6.5801 C   0  0  0  0  0  0  0  0  0  0  0  0
    3.9270    5.1721    6.1452 C   0  0  0  0  0  0  0  0  0  0  0  0
    2.5572    5.2335    6.0388 C   0  0  0  0  0  0  0  0  0  0  0  0
    5.8496    3.8218    6.7182 O   0  0  0  0  0  0  0  0  0  0  0  0
    6.8062    4.8053    6.3999 C   0  0  0  0  0  0  0  0  0  0  0  0
   -1.7941    1.8286    6.9051 I   0  0  0  0  0  0  0  0  0  0  0  0
  1  2  1  0
  2  3  2  0
  2  4  1  0
  4  5  1  0
  5  6  1  0
  6  7  1  0
  7  8  2  0
  8  9  1  0
  9 10  1  0
 10 11  2  0
 11 12  1  0
 12 13  2  0
 13 14  1  0
 14 15  2  0
 13 16  1  0
 16 17  1  0
  8 18  1  0
 11  7  1  0
 15 10  1  0
M  END
$$$$
