
     RDKit          3D

 18 19  0  0  0  0  0  0  0  0999 V2000
    0.7312   -2.7998   10.3937 C   0  0  0  0  0  0  0  0  0  0  0  0
    1.6949   -1.7193    9.9898 C   0  0  0  0  0  0  0  0  0  0  0  0
    2.8942   -2.0520    9.9094 O   0  0  0  0  0  0  0  0  0  0  0  0
    1.2493   -0.4306    9.7266 N   0  0  0  0  0  0  0  0  0  0  0  0
    2.0361    0.6365    9.2248 C   0  0  0  0  0  0  0  0  0  0  0  0
    2.2382    0.7678    7.7736 C   0  0  0  0  0  0  0  0  0  0  0  0
    1.9533    2.0107    7.0869 C   0  0  0  0  0  0  0  0  0  0  0  0
    0.7315    2.4629    6.5680 C   0  0  0  0  0  0  0  0  0  0  0  0
    0.9168    3.6855    6.0441 N   0  0  0  0  0  0  0  0  0  0  0  0
    2.1928    4.0704    6.1860 C   0  0  0  0  0  0  0  0  0  0  0  0
    2.8429    3.0446    6.8286 C   0  0  0  0  0  0  0  0  0  0  0  0
    4.1959    3.1897    7.1015 C   0  0  0  0  0  0  0  0  0  0  0  0
    4.8858    4.3298    6.7429 C   0  0  0  0  0  0  0  0  0  0  0  0
    4.2357    5.3723    6.0925 C   0  0  0  0  0  0  0  0  0  0  0  0
    2.8950    5.2258    5.8234 C   0  0  0  0  0  0  0  0  0  0  0  0
    6.2222    4.3840    7.0544 O   0  0  0  0  0  0  0  0  0  0  0  0
    7.0929    5.4219    6.6692 C   0  0  0  0  0  0  0  0  0  0  0  0
   -1.0657    1.3607    6.6301 I   0  0  0  0  0  0  0  0  0  0  0  0
  1  2  1  0
  2  3  2  0
  2  4  1  0
  4  5  1  0
  5  6  1  0
  6  7  1  0
  7  8  2  0
  8  9  1  0
  9 10  1  0
 10 11  2  0
 11 12  1  0
 12 13  2  0
 13 14  1  0
 14 15  2  0
 13 16  1  0
 16 17  1  0
  8 18  1  0
 11  7  1  0
 15 10  1  0
M  END
$$$$
