
     RDKit          3D

 18 19  0  0  0  0  0  0  0  0999 V2000
    5.9017    1.7152    7.5296 C   0  0  0  0  0  0  0  0  0  0  0  0
    4.9178    2.4498    6.6626 C   0  0  0  0  0  0  0  0  0  0  0  0
    4.5310    1.8516    5.6389 O   0  0  0  0  0  0  0  0  0  0  0  0
    4.4800    3.7227    7.0045 N   0  0  0  0  0  0  0  0  0  0  0  0
    3.5511    4.5075    6.2760 C   0  0  0  0  0  0  0  0  0  0  0  0
    2.1122    4.2272    6.3985 C   0  0  0  0  0  0  0  0  0  0  0  0
    1.2545    5.0571    7.2190 C   0  0  0  0  0  0  0  0  0  0  0  0
    0.7470    6.3342    6.9402 C   0  0  0  0  0  0  0  0  0  0  0  0
   -0.0321    6.7168    7.9650 N   0  0  0  0  0  0  0  0  0  0  0  0
   -0.0704    5.7655    8.9084 C   0  0  0  0  0  0  0  0  0  0  0  0
    0.7202    4.7355    8.4592 C   0  0  0  0  0  0  0  0  0  0  0  0
    0.8542    3.6096    9.2596 C   0  0  0  0  0  0  0  0  0  0  0  0
    0.2156    3.5115   10.4791 C   0  0  0  0  0  0  0  0  0  0  0  0
   -0.5860    4.5489   10.9409 C   0  0  0  0  0  0  0  0  0  0  0  0
   -0.7170    5.6634   10.1457 C   0  0  0  0  0  0  0  0  0  0  0  0
    0.4069    2.3593   11.2015 O   0  0  0  0  0  0  0  0  0  0  0  0
   -0.0864    2.1384   12.5022 C   0  0  0  0  0  0  0  0  0  0  0  0
    1.1721    7.4238    5.1849 I   0  0  0  0  0  0  0  0  0  0  0  0
  1  2  1  0
  2  3  2  0
  2  4  1  0
  4  5  1  0
  5  6  1  0
  6  7  1  0
  7  8  2  0
  8  9  1  0
  9 10  1  0
 10 11  2  0
 11 12  1  0
 12 13  2  0
 13 14  1  0
 14 15  2  0
 13 16  1  0
 16 17  1  0
  8 18  1  0
 11  7  1  0
 15 10  1  0
M  END
$$$$
