
     RDKit          3D

 18 19  0  0  0  0  0  0  0  0999 V2000
    6.9001    3.4840    6.7085 C   0  0  0  0  0  0  0  0  0  0  0  0
    5.6309    4.2760    6.8539 C   0  0  0  0  0  0  0  0  0  0  0  0
    5.6154    5.1309    7.7619 O   0  0  0  0  0  0  0  0  0  0  0  0
    4.5503    4.0491    6.0116 N   0  0  0  0  0  0  0  0  0  0  0  0
    3.2990    4.7130    6.0649 C   0  0  0  0  0  0  0  0  0  0  0  0
    2.0660    3.9246    6.2147 C   0  0  0  0  0  0  0  0  0  0  0  0
    1.2518    4.0269    7.4080 C   0  0  0  0  0  0  0  0  0  0  0  0
    0.4527    5.0983    7.8323 C   0  0  0  0  0  0  0  0  0  0  0  0
   -0.1541    4.7502    8.9787 N   0  0  0  0  0  0  0  0  0  0  0  0
    0.1972    3.5081    9.3394 C   0  0  0  0  0  0  0  0  0  0  0  0
    1.0651    3.0508    8.3773 C   0  0  0  0  0  0  0  0  0  0  0  0
    1.5860    1.7716    8.5134 C   0  0  0  0  0  0  0  0  0  0  0  0
    1.2506    0.9663    9.5826 C   0  0  0  0  0  0  0  0  0  0  0  0
    0.3733    1.4210   10.5603 C   0  0  0  0  0  0  0  0  0  0  0  0
   -0.1414    2.6890   10.4229 C   0  0  0  0  0  0  0  0  0  0  0  0
    1.8153   -0.2846    9.6331 O   0  0  0  0  0  0  0  0  0  0  0  0
    1.2466   -1.3941   10.2884 C   0  0  0  0  0  0  0  0  0  0  0  0
    0.2735    6.9281    6.7986 I   0  0  0  0  0  0  0  0  0  0  0  0
  1  2  1  0
  2  3  2  0
  2  4  1  0
  4  5  1  0
  5  6  1  0
  6  7  1  0
  7  8  2  0
  8  9  1  0
  9 10  1  0
 10 11  2  0
 11 12  1  0
 12 13  2  0
 13 14  1  0
 14 15  2  0
 13 16  1  0
 16 17  1  0
  8 18  1  0
 11  7  1  0
 15 10  1  0
M  END
$$$$
