
     RDKit          3D

 18 19  0  0  0  0  0  0  0  0999 V2000
    0.8294   -2.3229    9.8432 C   0  0  0  0  0  0  0  0  0  0  0  0
    1.3116   -0.9234    9.5818 C   0  0  0  0  0  0  0  0  0  0  0  0
    2.5233   -0.7105    9.7866 O   0  0  0  0  0  0  0  0  0  0  0  0
    0.4365    0.0593    9.1377 N   0  0  0  0  0  0  0  0  0  0  0  0
    0.7824    1.3920    8.8006 C   0  0  0  0  0  0  0  0  0  0  0  0
    1.0943    1.7283    7.4028 C   0  0  0  0  0  0  0  0  0  0  0  0
    1.2136    3.1060    6.9724 C   0  0  0  0  0  0  0  0  0  0  0  0
    0.1963    3.9988    6.6057 C   0  0  0  0  0  0  0  0  0  0  0  0
    0.7549    5.1834    6.3086 N   0  0  0  0  0  0  0  0  0  0  0  0
    2.0857    5.1273    6.4574 C   0  0  0  0  0  0  0  0  0  0  0  0
    2.3812    3.8495    6.8671 C   0  0  0  0  0  0  0  0  0  0  0  0
    3.7100    3.5212    7.0964 C   0  0  0  0  0  0  0  0  0  0  0  0
    4.7213    4.4438    6.9219 C   0  0  0  0  0  0  0  0  0  0  0  0
    4.4311    5.7386    6.5078 C   0  0  0  0  0  0  0  0  0  0  0  0
    3.1135    6.0612    6.2813 C   0  0  0  0  0  0  0  0  0  0  0  0
    6.0060    4.0282    7.1732 O   0  0  0  0  0  0  0  0  0  0  0  0
    7.1533    4.5464    6.5416 C   0  0  0  0  0  0  0  0  0  0  0  0
   -1.8535    3.5050    6.5496 I   0  0  0  0  0  0  0  0  0  0  0  0
  1  2  1  0
  2  3  2  0
  2  4  1  0
  4  5  1  0
  5  6  1  0
  6  7  1  0
  7  8  2  0
  8  9  1  0
  9 10  1  0
 10 11  2  0
 11 12  1  0
 12 13  2  0
 13 14  1  0
 14 15  2  0
 13 16  1  0
 16 17  1  0
  8 18  1  0
 11  7  1  0
 15 10  1  0
M  END
$$$$
