
     RDKit          3D

 18 19  0  0  0  0  0  0  0  0999 V2000
   -0.2208   -0.4560    8.2962 C   0  0  0  0  0  0  0  0  0  0  0  0
   -0.4764    0.9324    8.8123 C   0  0  0  0  0  0  0  0  0  0  0  0
   -1.0133    1.0130    9.9352 O   0  0  0  0  0  0  0  0  0  0  0  0
   -0.1252    2.0465    8.0613 N   0  0  0  0  0  0  0  0  0  0  0  0
   -0.2320    3.3978    8.4758 C   0  0  0  0  0  0  0  0  0  0  0  0
    0.9884    4.1626    8.7757 C   0  0  0  0  0  0  0  0  0  0  0  0
    1.8585    4.6304    7.7167 C   0  0  0  0  0  0  0  0  0  0  0  0
    1.6078    5.6146    6.7497 C   0  0  0  0  0  0  0  0  0  0  0  0
    2.7041    5.7515    5.9861 N   0  0  0  0  0  0  0  0  0  0  0  0
    3.6684    4.9138    6.3918 C   0  0  0  0  0  0  0  0  0  0  0  0
    3.1583    4.2160    7.4599 C   0  0  0  0  0  0  0  0  0  0  0  0
    3.9652    3.2693    8.0752 C   0  0  0  0  0  0  0  0  0  0  0  0
    5.2504    3.0228    7.6372 C   0  0  0  0  0  0  0  0  0  0  0  0
    5.7743    3.7242    6.5575 C   0  0  0  0  0  0  0  0  0  0  0  0
    4.9725    4.6618    5.9497 C   0  0  0  0  0  0  0  0  0  0  0  0
    5.9744    2.0680    8.3082 O   0  0  0  0  0  0  0  0  0  0  0  0
    7.3729    1.9208    8.2290 C   0  0  0  0  0  0  0  0  0  0  0  0
   -0.2095    6.6706    6.5736 I   0  0  0  0  0  0  0  0  0  0  0  0
  1  2  1  0
  2  3  2  0
  2  4  1  0
  4  5  1  0
  5  6  1  0
  6  7  1  0
  7  8  2  0
  8  9  1  0
  9 10  1  0
 10 11  2  0
 11 12  1  0
 12 13  2  0
 13 14  1  0
 14 15  2  0
 13 16  1  0
 16 17  1  0
  8 18  1  0
 11  7  1  0
 15 10  1  0
M  END
$$$$
