
     RDKit          3D

 18 19  0  0  0  0  0  0  0  0999 V2000
    0.5096   -1.6454    6.4940 C   0  0  0  0  0  0  0  0  0  0  0  0
   -0.0049   -0.5825    7.4240 C   0  0  0  0  0  0  0  0  0  0  0  0
   -1.1790   -0.7193    7.8219 O   0  0  0  0  0  0  0  0  0  0  0  0
    0.8020    0.4821    7.8036 N   0  0  0  0  0  0  0  0  0  0  0  0
    0.4778    1.4711    8.7660 C   0  0  0  0  0  0  0  0  0  0  0  0
    1.5126    2.4186    9.2085 C   0  0  0  0  0  0  0  0  0  0  0  0
    1.2737    3.8470    9.1993 C   0  0  0  0  0  0  0  0  0  0  0  0
    0.5750    4.6228   10.1355 C   0  0  0  0  0  0  0  0  0  0  0  0
    0.6289    5.9081    9.7498 N   0  0  0  0  0  0  0  0  0  0  0  0
    1.3241    6.0292    8.6103 C   0  0  0  0  0  0  0  0  0  0  0  0
    1.7275    4.7632    8.2603 C   0  0  0  0  0  0  0  0  0  0  0  0
    2.4749    4.6060    7.1015 C   0  0  0  0  0  0  0  0  0  0  0  0
    2.8129    5.6843    6.3095 C   0  0  0  0  0  0  0  0  0  0  0  0
    2.4088    6.9684    6.6562 C   0  0  0  0  0  0  0  0  0  0  0  0
    1.6684    7.1212    7.8051 C   0  0  0  0  0  0  0  0  0  0  0  0
    3.5551    5.4320    5.1818 O   0  0  0  0  0  0  0  0  0  0  0  0
    4.1616    6.4218    4.3842 C   0  0  0  0  0  0  0  0  0  0  0  0
   -0.3810    3.8433   11.8464 I   0  0  0  0  0  0  0  0  0  0  0  0
  1  2  1  0
  2  3  2  0
  2  4  1  0
  4  5  1  0
  5  6  1  0
  6  7  1  0
  7  8  2  0
  8  9  1  0
  9 10  1  0
 10 11  2  0
 11 12  1  0
 12 13  2  0
 13 14  1  0
 14 15  2  0
 13 16  1  0
 16 17  1  0
  8 18  1  0
 11  7  1  0
 15 10  1  0
M  END
$$$$
