
     RDKit          3D

 18 19  0  0  0  0  0  0  0  0999 V2000
    6.6526    6.1035    6.2948 C   0  0  0  0  0  0  0  0  0  0  0  0
    5.4637    5.3298    6.7922 C   0  0  0  0  0  0  0  0  0  0  0  0
    4.8747    5.8019    7.7850 O   0  0  0  0  0  0  0  0  0  0  0  0
    5.0643    4.1574    6.1639 N   0  0  0  0  0  0  0  0  0  0  0  0
    4.0458    3.2785    6.6105 C   0  0  0  0  0  0  0  0  0  0  0  0
    2.8265    3.8320    7.2197 C   0  0  0  0  0  0  0  0  0  0  0  0
    1.5747    3.1046    7.1843 C   0  0  0  0  0  0  0  0  0  0  0  0
    0.3520    3.4953    6.6197 C   0  0  0  0  0  0  0  0  0  0  0  0
   -0.5330    2.4990    6.7869 N   0  0  0  0  0  0  0  0  0  0  0  0
    0.0335    1.4690    7.4308 C   0  0  0  0  0  0  0  0  0  0  0  0
    1.3350    1.8309    7.6816 C   0  0  0  0  0  0  0  0  0  0  0  0
    2.1534    0.9297    8.3480 C   0  0  0  0  0  0  0  0  0  0  0  0
    1.6868   -0.3035    8.7553 C   0  0  0  0  0  0  0  0  0  0  0  0
    0.3715   -0.6776    8.5056 C   0  0  0  0  0  0  0  0  0  0  0  0
   -0.4372    0.2175    7.8450 C   0  0  0  0  0  0  0  0  0  0  0  0
    2.5694   -1.1291    9.4076 O   0  0  0  0  0  0  0  0  0  0  0  0
    2.1973   -2.1606   10.2916 C   0  0  0  0  0  0  0  0  0  0  0  0
    0.0189    5.3524    5.6769 I   0  0  0  0  0  0  0  0  0  0  0  0
  1  2  1  0
  2  3  2  0
  2  4  1  0
  4  5  1  0
  5  6  1  0
  6  7  1  0
  7  8  2  0
  8  9  1  0
  9 10  1  0
 10 11  2  0
 11 12  1  0
 12 13  2  0
 13 14  1  0
 14 15  2  0
 13 16  1  0
 16 17  1  0
  8 18  1  0
 11  7  1  0
 15 10  1  0
M  END
$$$$
