
     RDKit          3D

 18 19  0  0  0  0  0  0  0  0999 V2000
    0.5858    8.6370    5.5797 C   0  0  0  0  0  0  0  0  0  0  0  0
    1.2886    7.3249    5.3705 C   0  0  0  0  0  0  0  0  0  0  0  0
    1.3777    6.9290    4.1912 O   0  0  0  0  0  0  0  0  0  0  0  0
    1.8008    6.6126    6.4471 N   0  0  0  0  0  0  0  0  0  0  0  0
    2.7414    5.5546    6.3739 C   0  0  0  0  0  0  0  0  0  0  0  0
    2.3099    4.2331    5.8926 C   0  0  0  0  0  0  0  0  0  0  0  0
    1.8838    3.2020    6.8159 C   0  0  0  0  0  0  0  0  0  0  0  0
    0.5811    2.7705    7.1046 C   0  0  0  0  0  0  0  0  0  0  0  0
    0.6512    1.7688    7.9963 N   0  0  0  0  0  0  0  0  0  0  0  0
    1.9270    1.5109    8.3159 C   0  0  0  0  0  0  0  0  0  0  0  0
    2.6977    2.3895    7.5934 C   0  0  0  0  0  0  0  0  0  0  0  0
    4.0765    2.3335    7.7420 C   0  0  0  0  0  0  0  0  0  0  0  0
    4.6741    1.4239    8.5905 C   0  0  0  0  0  0  0  0  0  0  0  0
    3.9018    0.5316    9.3250 C   0  0  0  0  0  0  0  0  0  0  0  0
    2.5358    0.5892    9.1757 C   0  0  0  0  0  0  0  0  0  0  0  0
    6.0449    1.4422    8.6723 O   0  0  0  0  0  0  0  0  0  0  0  0
    6.8263    0.4236    9.2515 C   0  0  0  0  0  0  0  0  0  0  0  0
   -1.1604    3.5965    6.2481 I   0  0  0  0  0  0  0  0  0  0  0  0
  1  2  1  0
  2  3  2  0
  2  4  1  0
  4  5  1  0
  5  6  1  0
  6  7  1  0
  7  8  2  0
  8  9  1  0
  9 10  1  0
 10 11  2  0
 11 12  1  0
 12 13  2  0
 13 14  1  0
 14 15  2  0
 13 16  1  0
 16 17  1  0
  8 18  1  0
 11  7  1  0
 15 10  1  0
M  END
$$$$
