
     RDKit          3D

 18 19  0  0  0  0  0  0  0  0999 V2000
    5.9589    5.3776    5.1958 C   0  0  0  0  0  0  0  0  0  0  0  0
    5.0255    5.0039    6.3131 C   0  0  0  0  0  0  0  0  0  0  0  0
    4.4084    5.9433    6.8536 O   0  0  0  0  0  0  0  0  0  0  0  0
    4.8768    3.6792    6.7029 N   0  0  0  0  0  0  0  0  0  0  0  0
    4.0707    3.2107    7.7706 C   0  0  0  0  0  0  0  0  0  0  0  0
    2.8188    2.4970    7.4746 C   0  0  0  0  0  0  0  0  0  0  0  0
    1.7555    2.4115    8.4541 C   0  0  0  0  0  0  0  0  0  0  0  0
    0.8506    3.4064    8.8515 C   0  0  0  0  0  0  0  0  0  0  0  0
    0.0130    2.8826    9.7613 N   0  0  0  0  0  0  0  0  0  0  0  0
    0.3109    1.5961    9.9902 C   0  0  0  0  0  0  0  0  0  0  0  0
    1.3852    1.2935    9.1889 C   0  0  0  0  0  0  0  0  0  0  0  0
    1.8997    0.0053    9.2343 C   0  0  0  0  0  0  0  0  0  0  0  0
    1.3572   -0.9593   10.0587 C   0  0  0  0  0  0  0  0  0  0  0  0
    0.2704   -0.6616   10.8725 C   0  0  0  0  0  0  0  0  0  0  0  0
   -0.2375    0.6157   10.8254 C   0  0  0  0  0  0  0  0  0  0  0  0
    1.9327   -2.2061   10.0363 O   0  0  0  0  0  0  0  0  0  0  0  0
    1.3844   -3.3522   10.6442 C   0  0  0  0  0  0  0  0  0  0  0  0
    0.8539    5.3801    8.1076 I   0  0  0  0  0  0  0  0  0  0  0  0
  1  2  1  0
  2  3  2  0
  2  4  1  0
  4  5  1  0
  5  6  1  0
  6  7  1  0
  7  8  2  0
  8  9  1  0
  9 10  1  0
 10 11  2  0
 11 12  1  0
 12 13  2  0
 13 14  1  0
 14 15  2  0
 13 16  1  0
 16 17  1  0
  8 18  1  0
 11  7  1  0
 15 10  1  0
M  END
$$$$
