
     RDKit          3D

 18 19  0  0  0  0  0  0  0  0999 V2000
   -1.5001    7.5951   11.5051 C   0  0  0  0  0  0  0  0  0  0  0  0
   -0.5784    6.5319   10.9765 C   0  0  0  0  0  0  0  0  0  0  0  0
   -0.8375    5.3597   11.3145 O   0  0  0  0  0  0  0  0  0  0  0  0
    0.4947    6.8626   10.1593 N   0  0  0  0  0  0  0  0  0  0  0  0
    1.4131    5.9508    9.5808 C   0  0  0  0  0  0  0  0  0  0  0  0
    1.0053    5.1540    8.4133 C   0  0  0  0  0  0  0  0  0  0  0  0
    1.9755    4.7084    7.4347 C   0  0  0  0  0  0  0  0  0  0  0  0
    2.4142    5.3657    6.2763 C   0  0  0  0  0  0  0  0  0  0  0  0
    3.3460    4.6038    5.6804 N   0  0  0  0  0  0  0  0  0  0  0  0
    3.5504    3.4778    6.3780 C   0  0  0  0  0  0  0  0  0  0  0  0
    2.7099    3.5307    7.4636 C   0  0  0  0  0  0  0  0  0  0  0  0
    2.7232    2.4715    8.3603 C   0  0  0  0  0  0  0  0  0  0  0  0
    3.5543    1.3846    8.1802 C   0  0  0  0  0  0  0  0  0  0  0  0
    4.4077    1.3231    7.0847 C   0  0  0  0  0  0  0  0  0  0  0  0
    4.3924    2.3741    6.1978 C   0  0  0  0  0  0  0  0  0  0  0  0
    3.4986    0.3842    9.1195 O   0  0  0  0  0  0  0  0  0  0  0  0
    4.0136   -0.9141    8.9381 C   0  0  0  0  0  0  0  0  0  0  0  0
    1.6933    7.2391    5.6288 I   0  0  0  0  0  0  0  0  0  0  0  0
  1  2  1  0
  2  3  2  0
  2  4  1  0
  4  5  1  0
  5  6  1  0
  6  7  1  0
  7  8  2  0
  8  9  1  0
  9 10  1  0
 10 11  2  0
 11 12  1  0
 12 13  2  0
 13 14  1  0
 14 15  2  0
 13 16  1  0
 16 17  1  0
  8 18  1  0
 11  7  1  0
 15 10  1  0
M  END
$$$$
