
     RDKit          3D

 18 19  0  0  0  0  0  0  0  0999 V2000
    0.9108   -3.1554   10.3031 C   0  0  0  0  0  0  0  0  0  0  0  0
    1.7890   -1.9367   10.2478 C   0  0  0  0  0  0  0  0  0  0  0  0
    2.9158   -2.0449   10.7714 O   0  0  0  0  0  0  0  0  0  0  0  0
    1.3467   -0.7680    9.6419 N   0  0  0  0  0  0  0  0  0  0  0  0
    2.1094    0.4116    9.4516 C   0  0  0  0  0  0  0  0  0  0  0  0
    2.6164    0.7382    8.1098 C   0  0  0  0  0  0  0  0  0  0  0  0
    2.1717    1.9252    7.4093 C   0  0  0  0  0  0  0  0  0  0  0  0
    0.8902    2.2269    6.9264 C   0  0  0  0  0  0  0  0  0  0  0  0
    0.9202    3.4497    6.3717 N   0  0  0  0  0  0  0  0  0  0  0  0
    2.1494    3.9766    6.4592 C   0  0  0  0  0  0  0  0  0  0  0  0
    2.9313    3.0447    7.0981 C   0  0  0  0  0  0  0  0  0  0  0  0
    4.2682    3.3451    7.3185 C   0  0  0  0  0  0  0  0  0  0  0  0
    4.8141    4.5456    6.9122 C   0  0  0  0  0  0  0  0  0  0  0  0
    4.0303    5.4939    6.2653 C   0  0  0  0  0  0  0  0  0  0  0  0
    2.7058    5.1936    6.0483 C   0  0  0  0  0  0  0  0  0  0  0  0
    6.1461    4.7547    7.1737 O   0  0  0  0  0  0  0  0  0  0  0  0
    6.9017    5.8312    6.6698 C   0  0  0  0  0  0  0  0  0  0  0  0
   -0.7699    0.9345    7.0760 I   0  0  0  0  0  0  0  0  0  0  0  0
  1  2  1  0
  2  3  2  0
  2  4  1  0
  4  5  1  0
  5  6  1  0
  6  7  1  0
  7  8  2  0
  8  9  1  0
  9 10  1  0
 10 11  2  0
 11 12  1  0
 12 13  2  0
 13 14  1  0
 14 15  2  0
 13 16  1  0
 16 17  1  0
  8 18  1  0
 11  7  1  0
 15 10  1  0
M  END
$$$$
