
     RDKit          3D

 18 19  0  0  0  0  0  0  0  0999 V2000
    7.2810    6.0184    5.5274 C   0  0  0  0  0  0  0  0  0  0  0  0
    6.4665    5.4945    6.6770 C   0  0  0  0  0  0  0  0  0  0  0  0
    7.1024    5.1638    7.6977 O   0  0  0  0  0  0  0  0  0  0  0  0
    5.0847    5.3938    6.5822 N   0  0  0  0  0  0  0  0  0  0  0  0
    4.2944    4.3131    7.0480 C   0  0  0  0  0  0  0  0  0  0  0  0
    3.1257    3.8802    6.2664 C   0  0  0  0  0  0  0  0  0  0  0  0
    1.7810    4.0345    6.7816 C   0  0  0  0  0  0  0  0  0  0  0  0
    0.9856    5.1889    6.8177 C   0  0  0  0  0  0  0  0  0  0  0  0
   -0.2052    4.8700    7.3507 N   0  0  0  0  0  0  0  0  0  0  0  0
   -0.2450    3.5690    7.6704 C   0  0  0  0  0  0  0  0  0  0  0  0
    0.9758    3.0422    7.3238 C   0  0  0  0  0  0  0  0  0  0  0  0
    1.2006    1.6921    7.5534 C   0  0  0  0  0  0  0  0  0  0  0  0
    0.2324    0.8851    8.1153 C   0  0  0  0  0  0  0  0  0  0  0  0
   -1.0052    1.4099    8.4689 C   0  0  0  0  0  0  0  0  0  0  0  0
   -1.2253    2.7481    8.2401 C   0  0  0  0  0  0  0  0  0  0  0  0
    0.5452   -0.4388    8.3046 O   0  0  0  0  0  0  0  0  0  0  0  0
   -0.3475   -1.4098    8.7984 C   0  0  0  0  0  0  0  0  0  0  0  0
    1.6106    7.0835    6.1333 I   0  0  0  0  0  0  0  0  0  0  0  0
  1  2  1  0
  2  3  2  0
  2  4  1  0
  4  5  1  0
  5  6  1  0
  6  7  1  0
  7  8  2  0
  8  9  1  0
  9 10  1  0
 10 11  2  0
 11 12  1  0
 12 13  2  0
 13 14  1  0
 14 15  2  0
 13 16  1  0
 16 17  1  0
  8 18  1  0
 11  7  1  0
 15 10  1  0
M  END
$$$$
