
     RDKit          3D

 18 19  0  0  0  0  0  0  0  0999 V2000
    0.8618   -2.5491    9.8813 C   0  0  0  0  0  0  0  0  0  0  0  0
    0.9344   -1.4135    8.8991 C   0  0  0  0  0  0  0  0  0  0  0  0
   -0.0702   -1.2411    8.1804 O   0  0  0  0  0  0  0  0  0  0  0  0
    2.0683   -0.6159    8.8163 N   0  0  0  0  0  0  0  0  0  0  0  0
    2.2081    0.5535    8.0274 C   0  0  0  0  0  0  0  0  0  0  0  0
    1.5732    1.8052    8.4680 C   0  0  0  0  0  0  0  0  0  0  0  0
    1.4696    2.9454    7.5809 C   0  0  0  0  0  0  0  0  0  0  0  0
    0.3137    3.5679    7.0883 C   0  0  0  0  0  0  0  0  0  0  0  0
    0.6823    4.6096    6.3250 N   0  0  0  0  0  0  0  0  0  0  0  0
    2.0179    4.7137    6.2834 C   0  0  0  0  0  0  0  0  0  0  0  0
    2.5154    3.6916    7.0551 C   0  0  0  0  0  0  0  0  0  0  0  0
    3.8922    3.5705    7.1813 C   0  0  0  0  0  0  0  0  0  0  0  0
    4.7538    4.4469    6.5535 C   0  0  0  0  0  0  0  0  0  0  0  0
    4.2589    5.4836    5.7710 C   0  0  0  0  0  0  0  0  0  0  0  0
    2.8942    5.6013    5.6478 C   0  0  0  0  0  0  0  0  0  0  0  0
    6.1005    4.2488    6.7364 O   0  0  0  0  0  0  0  0  0  0  0  0
    7.1013    5.1748    6.3832 C   0  0  0  0  0  0  0  0  0  0  0  0
   -1.6513    2.9284    7.5110 I   0  0  0  0  0  0  0  0  0  0  0  0
  1  2  1  0
  2  3  2  0
  2  4  1  0
  4  5  1  0
  5  6  1  0
  6  7  1  0
  7  8  2  0
  8  9  1  0
  9 10  1  0
 10 11  2  0
 11 12  1  0
 12 13  2  0
 13 14  1  0
 14 15  2  0
 13 16  1  0
 16 17  1  0
  8 18  1  0
 11  7  1  0
 15 10  1  0
M  END
$$$$
