
     RDKit          3D

 18 19  0  0  0  0  0  0  0  0999 V2000
    1.8647   -2.8020   10.3191 C   0  0  0  0  0  0  0  0  0  0  0  0
    1.2310   -1.6998    9.5173 C   0  0  0  0  0  0  0  0  0  0  0  0
   -0.0087   -1.5959    9.6064 O   0  0  0  0  0  0  0  0  0  0  0  0
    2.0049   -0.8580    8.7292 N   0  0  0  0  0  0  0  0  0  0  0  0
    1.5296    0.2369    7.9644 C   0  0  0  0  0  0  0  0  0  0  0  0
    1.4696    1.5746    8.5735 C   0  0  0  0  0  0  0  0  0  0  0  0
    1.3541    2.7651    7.7568 C   0  0  0  0  0  0  0  0  0  0  0  0
    0.1926    3.3857    7.2749 C   0  0  0  0  0  0  0  0  0  0  0  0
    0.5490    4.4830    6.5875 N   0  0  0  0  0  0  0  0  0  0  0  0
    1.8816    4.6259    6.5861 C   0  0  0  0  0  0  0  0  0  0  0  0
    2.3901    3.5711    7.3049 C   0  0  0  0  0  0  0  0  0  0  0  0
    3.7665    3.4798    7.4579 C   0  0  0  0  0  0  0  0  0  0  0  0
    4.6170    4.4170    6.9079 C   0  0  0  0  0  0  0  0  0  0  0  0
    4.1110    5.4872    6.1792 C   0  0  0  0  0  0  0  0  0  0  0  0
    2.7467    5.5751    6.0292 C   0  0  0  0  0  0  0  0  0  0  0  0
    5.9642    4.2446    7.1119 O   0  0  0  0  0  0  0  0  0  0  0  0
    6.9730    4.7525    6.2705 C   0  0  0  0  0  0  0  0  0  0  0  0
   -1.7625    2.6677    7.6074 I   0  0  0  0  0  0  0  0  0  0  0  0
  1  2  1  0
  2  3  2  0
  2  4  1  0
  4  5  1  0
  5  6  1  0
  6  7  1  0
  7  8  2  0
  8  9  1  0
  9 10  1  0
 10 11  2  0
 11 12  1  0
 12 13  2  0
 13 14  1  0
 14 15  2  0
 13 16  1  0
 16 17  1  0
  8 18  1  0
 11  7  1  0
 15 10  1  0
M  END
$$$$
