
     RDKit          3D

 18 19  0  0  0  0  0  0  0  0999 V2000
    1.2272    2.7252    3.6638 C   0  0  0  0  0  0  0  0  0  0  0  0
    1.5711    2.0940    4.9839 C   0  0  0  0  0  0  0  0  0  0  0  0
    0.6445    1.4971    5.5676 O   0  0  0  0  0  0  0  0  0  0  0  0
    2.8561    2.1849    5.5027 N   0  0  0  0  0  0  0  0  0  0  0  0
    3.2769    1.7147    6.7721 C   0  0  0  0  0  0  0  0  0  0  0  0
    3.4181    2.6647    7.8865 C   0  0  0  0  0  0  0  0  0  0  0  0
    2.3133    3.5056    8.2986 C   0  0  0  0  0  0  0  0  0  0  0  0
    1.2104    3.1712    9.0975 C   0  0  0  0  0  0  0  0  0  0  0  0
    0.4489    4.2664    9.2536 N   0  0  0  0  0  0  0  0  0  0  0  0
    0.9843    5.3090    8.6034 C   0  0  0  0  0  0  0  0  0  0  0  0
    2.1360    4.8518    8.0096 C   0  0  0  0  0  0  0  0  0  0  0  0
    2.8925    5.7445    7.2635 C   0  0  0  0  0  0  0  0  0  0  0  0
    2.5113    7.0621    7.1119 C   0  0  0  0  0  0  0  0  0  0  0  0
    1.3477    7.5329    7.7092 C   0  0  0  0  0  0  0  0  0  0  0  0
    0.6000    6.6460    8.4480 C   0  0  0  0  0  0  0  0  0  0  0  0
    3.3231    7.8718    6.3559 O   0  0  0  0  0  0  0  0  0  0  0  0
    3.2399    9.2773    6.3172 C   0  0  0  0  0  0  0  0  0  0  0  0
    0.8597    1.2497    9.8933 I   0  0  0  0  0  0  0  0  0  0  0  0
  1  2  1  0
  2  3  2  0
  2  4  1  0
  4  5  1  0
  5  6  1  0
  6  7  1  0
  7  8  2  0
  8  9  1  0
  9 10  1  0
 10 11  2  0
 11 12  1  0
 12 13  2  0
 13 14  1  0
 14 15  2  0
 13 16  1  0
 16 17  1  0
  8 18  1  0
 11  7  1  0
 15 10  1  0
M  END
$$$$
