
     RDKit          3D

 18 19  0  0  0  0  0  0  0  0999 V2000
   -0.3163    2.3463    3.0147 C   0  0  0  0  0  0  0  0  0  0  0  0
    0.5207    2.9370    4.1147 C   0  0  0  0  0  0  0  0  0  0  0  0
   -0.0190    3.8282    4.8002 O   0  0  0  0  0  0  0  0  0  0  0  0
    1.8196    2.4975    4.3344 N   0  0  0  0  0  0  0  0  0  0  0  0
    2.7862    3.1324    5.1542 C   0  0  0  0  0  0  0  0  0  0  0  0
    2.8793    2.7713    6.5773 C   0  0  0  0  0  0  0  0  0  0  0  0
    2.6395    3.7514    7.6162 C   0  0  0  0  0  0  0  0  0  0  0  0
    1.6364    3.7594    8.5961 C   0  0  0  0  0  0  0  0  0  0  0  0
    1.8085    4.8404    9.3741 N   0  0  0  0  0  0  0  0  0  0  0  0
    2.8694    5.5506    8.9658 C   0  0  0  0  0  0  0  0  0  0  0  0
    3.3910    4.8882    7.8809 C   0  0  0  0  0  0  0  0  0  0  0  0
    4.5116    5.4209    7.2592 C   0  0  0  0  0  0  0  0  0  0  0  0
    5.0993    6.5863    7.7073 C   0  0  0  0  0  0  0  0  0  0  0  0
    4.5781    7.2627    8.8041 C   0  0  0  0  0  0  0  0  0  0  0  0
    3.4676    6.7325    9.4183 C   0  0  0  0  0  0  0  0  0  0  0  0
    6.2051    7.0376    7.0292 O   0  0  0  0  0  0  0  0  0  0  0  0
    7.1734    7.9084    7.5657 C   0  0  0  0  0  0  0  0  0  0  0  0
    0.1339    2.2893    8.7693 I   0  0  0  0  0  0  0  0  0  0  0  0
  1  2  1  0
  2  3  2  0
  2  4  1  0
  4  5  1  0
  5  6  1  0
  6  7  1  0
  7  8  2  0
  8  9  1  0
  9 10  1  0
 10 11  2  0
 11 12  1  0
 12 13  2  0
 13 14  1  0
 14 15  2  0
 13 16  1  0
 16 17  1  0
  8 18  1  0
 11  7  1  0
 15 10  1  0
M  END
$$$$
