
     RDKit          3D

 18 19  0  0  0  0  0  0  0  0999 V2000
    2.6262   -2.7373   10.1353 C   0  0  0  0  0  0  0  0  0  0  0  0
    1.6100   -1.7990    9.5467 C   0  0  0  0  0  0  0  0  0  0  0  0
    0.4218   -2.0018    9.8669 O   0  0  0  0  0  0  0  0  0  0  0  0
    1.9984   -0.7719    8.6965 N   0  0  0  0  0  0  0  0  0  0  0  0
    1.1517    0.2306    8.1604 C   0  0  0  0  0  0  0  0  0  0  0  0
    1.2895    1.6199    8.6242 C   0  0  0  0  0  0  0  0  0  0  0  0
    1.3450    2.7211    7.6853 C   0  0  0  0  0  0  0  0  0  0  0  0
    0.2932    3.3213    6.9783 C   0  0  0  0  0  0  0  0  0  0  0  0
    0.7925    4.3299    6.2453 N   0  0  0  0  0  0  0  0  0  0  0  0
    2.1165    4.4329    6.4259 C   0  0  0  0  0  0  0  0  0  0  0  0
    2.4696    3.4449    7.3131 C   0  0  0  0  0  0  0  0  0  0  0  0
    3.8044    3.3301    7.6754 C   0  0  0  0  0  0  0  0  0  0  0  0
    4.7655    4.1795    7.1662 C   0  0  0  0  0  0  0  0  0  0  0  0
    4.4169    5.1817    6.2683 C   0  0  0  0  0  0  0  0  0  0  0  0
    3.0935    5.2931    5.9111 C   0  0  0  0  0  0  0  0  0  0  0  0
    6.0605    3.9903    7.5826 O   0  0  0  0  0  0  0  0  0  0  0  0
    7.1937    4.5337    6.9466 C   0  0  0  0  0  0  0  0  0  0  0  0
   -1.7192    2.6993    7.0889 I   0  0  0  0  0  0  0  0  0  0  0  0
  1  2  1  0
  2  3  2  0
  2  4  1  0
  4  5  1  0
  5  6  1  0
  6  7  1  0
  7  8  2  0
  8  9  1  0
  9 10  1  0
 10 11  2  0
 11 12  1  0
 12 13  2  0
 13 14  1  0
 14 15  2  0
 13 16  1  0
 16 17  1  0
  8 18  1  0
 11  7  1  0
 15 10  1  0
M  END
$$$$
