
     RDKit          3D

 18 19  0  0  0  0  0  0  0  0999 V2000
    0.7698   -2.3716   10.7741 C   0  0  0  0  0  0  0  0  0  0  0  0
    0.6280   -1.2654    9.7663 C   0  0  0  0  0  0  0  0  0  0  0  0
    0.5670   -1.6137    8.5703 O   0  0  0  0  0  0  0  0  0  0  0  0
    0.5707    0.0620   10.1704 N   0  0  0  0  0  0  0  0  0  0  0  0
    0.4743    1.1892    9.3161 C   0  0  0  0  0  0  0  0  0  0  0  0
    1.5501    2.1926    9.3161 C   0  0  0  0  0  0  0  0  0  0  0  0
    1.2563    3.6059    9.1988 C   0  0  0  0  0  0  0  0  0  0  0  0
    0.6394    4.4512   10.1323 C   0  0  0  0  0  0  0  0  0  0  0  0
    0.5989    5.6928    9.6222 N   0  0  0  0  0  0  0  0  0  0  0  0
    1.1543    5.7194    8.4026 C   0  0  0  0  0  0  0  0  0  0  0  0
    1.5641    4.4366    8.1300 C   0  0  0  0  0  0  0  0  0  0  0  0
    2.1799    4.1858    6.9119 C   0  0  0  0  0  0  0  0  0  0  0  0
    2.3831    5.1892    5.9864 C   0  0  0  0  0  0  0  0  0  0  0  0
    1.9716    6.4896    6.2542 C   0  0  0  0  0  0  0  0  0  0  0  0
    1.3617    6.7352    7.4621 C   0  0  0  0  0  0  0  0  0  0  0  0
    3.0011    4.8467    4.8087 O   0  0  0  0  0  0  0  0  0  0  0  0
    3.4478    5.7679    3.8414 C   0  0  0  0  0  0  0  0  0  0  0  0
   -0.0842    3.8193   12.0100 I   0  0  0  0  0  0  0  0  0  0  0  0
  1  2  1  0
  2  3  2  0
  2  4  1  0
  4  5  1  0
  5  6  1  0
  6  7  1  0
  7  8  2  0
  8  9  1  0
  9 10  1  0
 10 11  2  0
 11 12  1  0
 12 13  2  0
 13 14  1  0
 14 15  2  0
 13 16  1  0
 16 17  1  0
  8 18  1  0
 11  7  1  0
 15 10  1  0
M  END
$$$$
