
     RDKit          3D

 18 19  0  0  0  0  0  0  0  0999 V2000
    1.8683   -2.5102   10.1413 C   0  0  0  0  0  0  0  0  0  0  0  0
    1.0653   -1.5002    9.3703 C   0  0  0  0  0  0  0  0  0  0  0  0
   -0.1731   -1.6455    9.3947 O   0  0  0  0  0  0  0  0  0  0  0  0
    1.6917   -0.4723    8.6776 N   0  0  0  0  0  0  0  0  0  0  0  0
    1.0438    0.5896    7.9978 C   0  0  0  0  0  0  0  0  0  0  0  0
    1.0314    1.9331    8.5970 C   0  0  0  0  0  0  0  0  0  0  0  0
    1.0737    3.1221    7.7712 C   0  0  0  0  0  0  0  0  0  0  0  0
    0.0034    3.8659    7.2538 C   0  0  0  0  0  0  0  0  0  0  0  0
    0.5001    4.9102    6.5709 N   0  0  0  0  0  0  0  0  0  0  0  0
    1.8399    4.9015    6.6058 C   0  0  0  0  0  0  0  0  0  0  0  0
    2.2061    3.8021    7.3442 C   0  0  0  0  0  0  0  0  0  0  0  0
    3.5586    3.5572    7.5360 C   0  0  0  0  0  0  0  0  0  0  0  0
    4.5244    4.3877    7.0050 C   0  0  0  0  0  0  0  0  0  0  0  0
    4.1627    5.5020    6.2569 C   0  0  0  0  0  0  0  0  0  0  0  0
    2.8217    5.7423    6.0684 C   0  0  0  0  0  0  0  0  0  0  0  0
    5.8373    4.0658    7.2475 O   0  0  0  0  0  0  0  0  0  0  0  0
    6.9232    4.4783    6.4510 C   0  0  0  0  0  0  0  0  0  0  0  0
   -2.0288    3.3762    7.5353 I   0  0  0  0  0  0  0  0  0  0  0  0
  1  2  1  0
  2  3  2  0
  2  4  1  0
  4  5  1  0
  5  6  1  0
  6  7  1  0
  7  8  2  0
  8  9  1  0
  9 10  1  0
 10 11  2  0
 11 12  1  0
 12 13  2  0
 13 14  1  0
 14 15  2  0
 13 16  1  0
 16 17  1  0
  8 18  1  0
 11  7  1  0
 15 10  1  0
M  END
$$$$
