
     RDKit          3D

 18 19  0  0  0  0  0  0  0  0999 V2000
    0.6094   -0.1463   12.8109 C   0  0  0  0  0  0  0  0  0  0  0  0
    0.8397    0.0684   11.3412 C   0  0  0  0  0  0  0  0  0  0  0  0
    0.2878   -0.7438   10.5722 O   0  0  0  0  0  0  0  0  0  0  0  0
    1.6274    1.1196   10.8905 N   0  0  0  0  0  0  0  0  0  0  0  0
    1.7891    1.5200    9.5403 C   0  0  0  0  0  0  0  0  0  0  0  0
    0.7400    2.3216    8.8915 C   0  0  0  0  0  0  0  0  0  0  0  0
    1.0156    3.0876    7.6937 C   0  0  0  0  0  0  0  0  0  0  0  0
    0.5789    2.8481    6.3828 C   0  0  0  0  0  0  0  0  0  0  0  0
    1.0440    3.8291    5.5922 N   0  0  0  0  0  0  0  0  0  0  0  0
    1.7647    4.7064    6.3045 C   0  0  0  0  0  0  0  0  0  0  0  0
    1.7545    4.2593    7.6037 C   0  0  0  0  0  0  0  0  0  0  0  0
    2.4378    4.9970    8.5604 C   0  0  0  0  0  0  0  0  0  0  0  0
    3.1156    6.1531    8.2311 C   0  0  0  0  0  0  0  0  0  0  0  0
    3.1310    6.6124    6.9192 C   0  0  0  0  0  0  0  0  0  0  0  0
    2.4530    5.8794    5.9733 C   0  0  0  0  0  0  0  0  0  0  0  0
    3.7627    6.8166    9.2446 O   0  0  0  0  0  0  0  0  0  0  0  0
    4.8926    7.6391    9.0699 C   0  0  0  0  0  0  0  0  0  0  0  0
   -0.6096    1.2029    5.8091 I   0  0  0  0  0  0  0  0  0  0  0  0
  1  2  1  0
  2  3  2  0
  2  4  1  0
  4  5  1  0
  5  6  1  0
  6  7  1  0
  7  8  2  0
  8  9  1  0
  9 10  1  0
 10 11  2  0
 11 12  1  0
 12 13  2  0
 13 14  1  0
 14 15  2  0
 13 16  1  0
 16 17  1  0
  8 18  1  0
 11  7  1  0
 15 10  1  0
M  END
$$$$
