CT1002406421
     RDKit          3D

 20 20  0  0  0  0  0  0  0  0999 V2000
   -0.5512   13.6689   27.5409 C   0  0  1  0  0  0  0  0  0  0  0  0
   -1.6383   14.1630   28.4950 C   0  0  1  0  0  0  0  0  0  0  0  0
    0.5000   13.2516   28.3569 O   0  0  0  0  0  0  0  0  0  0  0  0
   -1.0683   12.5869   26.8632 O   0  0  0  0  0  0  0  0  0  0  0  0
   -1.1452   15.4361   29.1153 C   0  0  2  0  0  0  0  0  0  0  0  0
   -2.8549   14.3195   27.8330 O   0  0  0  0  0  0  0  0  0  0  0  0
    1.0972   14.2838   29.0349 C   0  0  1  0  0  0  0  0  0  0  0  0
   -1.4828   11.6307   27.7460 C   0  0  0  0  0  0  0  0  0  0  0  0
    0.3424   15.5717   29.0086 C   0  0  1  0  0  0  0  0  0  0  0  0
   -1.5201   15.4350   30.4581 O   0  0  0  0  0  0  0  0  0  0  0  0
    1.4654   13.9245   30.4684 C   0  0  0  0  0  0  0  0  0  0  0  0
   -2.8802   11.1168   27.4758 C   0  0  0  0  0  0  0  0  0  0  0  0
    0.7280   16.2849   27.8714 O   0  0  0  0  0  0  0  0  0  0  0  0
    2.8199   13.5728   30.4744 O   0  0  0  0  0  0  0  0  0  0  0  0
   -2.7032    9.8115   26.7379 C   0  0  0  0  0  0  0  0  0  0  0  0
   -3.7181    9.6907   25.5729 C   0  0  0  0  0  0  0  0  0  0  0  0
   -4.8462    8.8169   25.9576 C   0  0  0  0  0  0  0  0  0  0  0  0
   -4.5318    7.3692   25.8481 C   0  0  0  0  0  0  0  0  0  0  0  0
   -4.4868    6.8197   24.4839 C   0  0  0  0  0  0  0  0  0  0  0  0
   -4.6019    5.3577   24.2894 C   0  0  0  0  0  0  0  0  0  0  0  0
  1  2  1  0
  1  3  1  0
  1  4  1  1
  2  5  1  0
  2  6  1  6
  7  3  1  1
  8  4  1  6
  5  9  1  0
  5 10  1  1
  7  9  1  0
  7 11  1  0
 12  8  1  6
  9 13  1  6
 11 14  1  1
 15 12  1  6
 16 15  1  6
 17 16  1  6
 18 17  1  6
 18 19  1  0
 19 20  1  1
M  END
$$$$
