CT1002406421
     RDKit          3D

 20 20  0  0  0  0  0  0  0  0999 V2000
   -2.3290   14.2266   28.2175 C   0  0  1  0  0  0  0  0  0  0  0  0
   -3.1278   12.9241   28.2594 C   0  0  1  0  0  0  0  0  0  0  0  0
   -2.5918   14.8647   29.4294 O   0  0  0  0  0  0  0  0  0  0  0  0
   -0.9967   13.8828   28.1552 O   0  0  0  0  0  0  0  0  0  0  0  0
   -4.5798   13.2856   28.1612 C   0  0  2  0  0  0  0  0  0  0  0  0
   -2.7184   12.0507   27.2532 O   0  0  0  0  0  0  0  0  0  0  0  0
   -3.8945   15.2777   29.5485 C   0  0  1  0  0  0  0  0  0  0  0  0
   -0.2796   14.6034   29.0674 C   0  0  0  0  0  0  0  0  0  0  0  0
   -4.8265   14.7170   28.5257 C   0  0  1  0  0  0  0  0  0  0  0  0
   -5.2909   12.4534   29.0247 O   0  0  0  0  0  0  0  0  0  0  0  0
   -4.4643   15.0656   30.9450 C   0  0  0  0  0  0  0  0  0  0  0  0
    0.9601   13.8933   29.5662 C   0  0  0  0  0  0  0  0  0  0  0  0
   -4.8124   15.5567   27.4098 O   0  0  0  0  0  0  0  0  0  0  0  0
   -4.2628   16.2511   31.6610 O   0  0  0  0  0  0  0  0  0  0  0  0
    1.9350   13.9086   28.4134 C   0  0  0  0  0  0  0  0  0  0  0  0
    3.0262   12.8232   28.5951 C   0  0  0  0  0  0  0  0  0  0  0  0
    3.8548   13.1160   29.7834 C   0  0  0  0  0  0  0  0  0  0  0  0
    5.3040   13.2262   29.4763 C   0  0  0  0  0  0  0  0  0  0  0  0
    6.1441   12.1001   29.9137 C   0  0  0  0  0  0  0  0  0  0  0  0
    6.8846   11.3151   28.9018 C   0  0  0  0  0  0  0  0  0  0  0  0
  1  2  1  0
  1  3  1  0
  1  4  1  1
  2  5  1  0
  2  6  1  6
  7  3  1  1
  8  4  1  6
  5  9  1  0
  5 10  1  1
  7  9  1  0
  7 11  1  0
 12  8  1  6
  9 13  1  6
 11 14  1  1
 15 12  1  6
 16 15  1  6
 17 16  1  6
 18 17  1  6
 18 19  1  0
 19 20  1  1
M  END
$$$$
