CT1002406421
     RDKit          3D

 20 20  0  0  0  0  0  0  0  0999 V2000
   -2.2200   12.8404   28.1288 C   0  0  1  0  0  0  0  0  0  0  0  0
   -3.1876   13.9035   28.6484 C   0  0  1  0  0  0  0  0  0  0  0  0
   -2.1721   13.0228   26.7470 O   0  0  0  0  0  0  0  0  0  0  0  0
   -0.9855   13.1150   28.6746 O   0  0  0  0  0  0  0  0  0  0  0  0
   -4.5633   13.5180   28.1929 C   0  0  2  0  0  0  0  0  0  0  0  0
   -3.0933   14.0356   30.0328 O   0  0  0  0  0  0  0  0  0  0  0  0
   -3.3576   12.7258   26.1238 C   0  0  1  0  0  0  0  0  0  0  0  0
   -0.2404   11.9732   28.7560 C   0  0  0  0  0  0  0  0  0  0  0  0
   -4.5246   12.5625   27.0405 C   0  0  1  0  0  0  0  0  0  0  0  0
   -5.2340   14.6805   27.8149 O   0  0  0  0  0  0  0  0  0  0  0  0
   -3.7056   13.6990   25.0050 C   0  0  0  0  0  0  0  0  0  0  0  0
   -0.0974   11.4380   30.1642 C   0  0  0  0  0  0  0  0  0  0  0  0
   -4.5746   11.2302   27.4565 O   0  0  0  0  0  0  0  0  0  0  0  0
   -3.9086   12.9434   23.8446 O   0  0  0  0  0  0  0  0  0  0  0  0
    1.3875   11.3563   30.4247 C   0  0  0  0  0  0  0  0  0  0  0  0
    2.1728   12.2706   29.4506 C   0  0  0  0  0  0  0  0  0  0  0  0
    3.2089   13.0333   30.1781 C   0  0  0  0  0  0  0  0  0  0  0  0
    4.2581   12.1715   30.7808 C   0  0  0  0  0  0  0  0  0  0  0  0
    5.6029   12.7613   30.8742 C   0  0  0  0  0  0  0  0  0  0  0  0
    6.7323   12.0982   30.1861 C   0  0  0  0  0  0  0  0  0  0  0  0
  1  2  1  0
  1  3  1  0
  1  4  1  1
  2  5  1  0
  2  6  1  1
  7  3  1  1
  8  4  1  6
  5  9  1  0
  5 10  1  6
  7  9  1  0
  7 11  1  0
 12  8  1  6
  9 13  1  1
 11 14  1  1
 15 12  1  6
 16 15  1  6
 17 16  1  6
 18 17  1  6
 18 19  1  0
 19 20  1  1
M  END
$$$$
