CT1002406421
     RDKit          3D

 20 20  0  0  0  0  0  0  0  0999 V2000
  -10.8643   -3.9182   46.0597 C   0  0  1  0  0  0  0  0  0  0  0  0
  -11.3758   -2.9895   47.1607 C   0  0  1  0  0  0  0  0  0  0  0  0
  -10.6046   -3.0927   44.9661 O   0  0  0  0  0  0  0  0  0  0  0  0
   -9.6867   -4.4717   46.5114 O   0  0  0  0  0  0  0  0  0  0  0  0
  -12.7357   -2.5114   46.7476 C   0  0  2  0  0  0  0  0  0  0  0  0
  -11.3808   -3.6316   48.3979 O   0  0  0  0  0  0  0  0  0  0  0  0
  -11.7385   -2.5362   44.4309 C   0  0  1  0  0  0  0  0  0  0  0  0
   -9.0308   -5.0896   45.4850 C   0  0  0  0  0  0  0  0  0  0  0  0
  -12.9621   -2.6699   45.2758 C   0  0  1  0  0  0  0  0  0  0  0  0
  -12.8438   -1.1656   47.0956 O   0  0  0  0  0  0  0  0  0  0  0  0
  -11.5513   -1.0842   44.0106 C   0  0  0  0  0  0  0  0  0  0  0  0
   -7.5450   -4.8046   45.4521 C   0  0  0  0  0  0  0  0  0  0  0  0
  -13.5822   -3.8818   44.9638 O   0  0  0  0  0  0  0  0  0  0  0  0
  -10.3970   -1.0250   43.2214 O   0  0  0  0  0  0  0  0  0  0  0  0
   -6.9734   -5.4567   46.6881 C   0  0  0  0  0  0  0  0  0  0  0  0
   -5.4274   -5.3511   46.7066 C   0  0  0  0  0  0  0  0  0  0  0  0
   -4.9984   -4.1714   47.4867 C   0  0  0  0  0  0  0  0  0  0  0  0
   -4.2365   -3.1811   46.6831 C   0  0  0  0  0  0  0  0  0  0  0  0
   -2.7735   -3.2136   46.8367 C   0  0  0  0  0  0  0  0  0  0  0  0
   -2.1682   -2.7305   48.0972 C   0  0  0  0  0  0  0  0  0  0  0  0
  1  2  1  0
  1  3  1  0
  1  4  1  1
  2  5  1  0
  2  6  1  1
  7  3  1  1
  8  4  1  6
  5  9  1  0
  5 10  1  6
  7  9  1  0
  7 11  1  0
 12  8  1  6
  9 13  1  1
 11 14  1  1
 15 12  1  6
 16 15  1  6
 17 16  1  6
 18 17  1  6
 18 19  1  0
 19 20  1  1
M  END
$$$$
