CT1002406421
     RDKit          3D

 20 20  0  0  0  0  0  0  0  0999 V2000
   -2.3837   14.3508   28.4874 C   0  0  1  0  0  0  0  0  0  0  0  0
   -2.3698   14.3788   30.0156 C   0  0  1  0  0  0  0  0  0  0  0  0
   -1.0561   14.1595   28.1056 O   0  0  0  0  0  0  0  0  0  0  0  0
   -3.1355   13.2604   28.1091 O   0  0  0  0  0  0  0  0  0  0  0  0
   -1.6946   15.6505   30.4342 C   0  0  2  0  0  0  0  0  0  0  0  0
   -3.6584   14.2548   30.5324 O   0  0  0  0  0  0  0  0  0  0  0  0
   -0.2495   15.2263   28.4108 C   0  0  1  0  0  0  0  0  0  0  0  0
   -2.6978   12.7783   26.9084 C   0  0  0  0  0  0  0  0  0  0  0  0
   -0.8579   16.2287   29.3350 C   0  0  1  0  0  0  0  0  0  0  0  0
   -0.8893   15.3685   31.5368 O   0  0  0  0  0  0  0  0  0  0  0  0
    1.1235   14.8111   28.9229 C   0  0  0  0  0  0  0  0  0  0  0  0
   -3.5200   11.6234   26.3793 C   0  0  0  0  0  0  0  0  0  0  0  0
   -1.5610   17.1624   28.5707 O   0  0  0  0  0  0  0  0  0  0  0  0
    2.0635   15.2166   27.9686 O   0  0  0  0  0  0  0  0  0  0  0  0
   -2.5250   10.5675   25.9611 C   0  0  0  0  0  0  0  0  0  0  0  0
   -2.6856    9.2846   26.8155 C   0  0  0  0  0  0  0  0  0  0  0  0
   -2.7992    8.0946   25.9463 C   0  0  0  0  0  0  0  0  0  0  0  0
   -4.1662    7.5138   25.9213 C   0  0  0  0  0  0  0  0  0  0  0  0
   -4.3002    6.1543   26.4680 C   0  0  0  0  0  0  0  0  0  0  0  0
   -4.6916    5.0482   25.5669 C   0  0  0  0  0  0  0  0  0  0  0  0
  1  2  1  0
  1  3  1  0
  1  4  1  1
  2  5  1  0
  2  6  1  6
  7  3  1  1
  8  4  1  6
  5  9  1  0
  5 10  1  1
  7  9  1  0
  7 11  1  0
 12  8  1  6
  9 13  1  6
 11 14  1  1
 15 12  1  6
 16 15  1  6
 17 16  1  6
 18 17  1  6
 18 19  1  0
 19 20  1  1
M  END
$$$$
