
     RDKit          3D

 22 23  0  0  0  0  0  0  0  0999 V2000
    1.3250   -0.7033    9.6394 C   0  0  0  0  0  0  0  0  0  0  0  0
    1.5883    0.7634    9.6185 C   0  0  0  0  0  0  0  0  0  0  0  0
    2.9576    1.0499    9.1267 C   0  0  0  0  0  0  0  0  0  0  0  0
    1.6076    1.2148   11.1156 C   0  0  0  0  0  0  0  0  0  0  0  0
    0.5847    1.5484    9.0102 N   0  0  0  0  0  0  0  0  0  0  0  0
   -0.4259    2.1939    9.6911 C   0  0  0  0  0  0  0  0  0  0  0  0
   -1.5307    2.9513    9.0919 C   0  0  0  0  0  0  0  0  0  0  0  0
   -1.2996    3.3591    7.6446 C   0  0  0  0  0  0  0  0  0  0  0  0
   -1.8663    4.2504    6.9868 O   0  0  0  0  0  0  0  0  0  0  0  0
   -2.4519    5.1706    6.3079 C   0  0  0  0  0  0  0  0  0  0  0  0
   -2.0240    5.3127    4.9484 C   0  0  0  0  0  0  0  0  0  0  0  0
   -2.5899    6.2392    4.1126 C   0  0  0  0  0  0  0  0  0  0  0  0
   -3.5820    7.0551    4.5721 C   0  0  0  0  0  0  0  0  0  0  0  0
   -4.0276    6.9591    5.8755 C   0  0  0  0  0  0  0  0  0  0  0  0
   -3.4466    6.0047    6.7319 C   0  0  0  0  0  0  0  0  0  0  0  0
   -4.0580    6.2411    7.9497 C   0  0  0  0  0  0  0  0  0  0  0  0
   -4.9763    7.3256    7.8179 C   0  0  0  0  0  0  0  0  0  0  0  0
   -4.9059    7.6967    6.5542 N   0  0  0  0  0  0  0  0  0  0  0  0
   -5.6563    7.8243    8.9715 C   0  0  0  0  0  0  0  0  0  0  0  0
   -6.1971    8.2254    9.9269 N   0  0  0  0  0  0  0  0  0  0  0  0
   -3.7116    5.1332    9.6906 I   0  0  0  0  0  0  0  0  0  0  0  0
   -2.7991    2.5058    9.2667 O   0  0  0  0  0  0  0  0  0  0  0  0
  1  2  1  0
  2  3  1  0
  2  4  1  0
  2  5  1  0
  5  6  1  0
  6  7  1  0
  7  8  1  0
  8  9  1  0
  9 10  1  0
 10 11  2  0
 11 12  1  0
 12 13  2  0
 13 14  1  0
 14 15  2  0
 15 16  1  0
 16 17  2  0
 17 18  1  0
 17 19  1  0
 19 20  3  0
 16 21  1  0
  7 22  1  0
 15 10  1  0
 18 14  1  0
M  END
$$$$
