
     RDKit          3D

 22 23  0  0  0  0  0  0  0  0999 V2000
    0.0857   -0.0025   11.1154 C   0  0  0  0  0  0  0  0  0  0  0  0
    0.9067    0.9635   10.3320 C   0  0  0  0  0  0  0  0  0  0  0  0
    2.1377    0.3177    9.8158 C   0  0  0  0  0  0  0  0  0  0  0  0
    1.4219    2.0201   11.3633 C   0  0  0  0  0  0  0  0  0  0  0  0
    0.2008    1.7090    9.3627 N   0  0  0  0  0  0  0  0  0  0  0  0
   -0.3943    1.1715    8.2407 C   0  0  0  0  0  0  0  0  0  0  0  0
   -1.1254    1.9122    7.2064 C   0  0  0  0  0  0  0  0  0  0  0  0
   -1.5392    3.3178    7.6153 C   0  0  0  0  0  0  0  0  0  0  0  0
   -2.1113    4.1896    6.9364 O   0  0  0  0  0  0  0  0  0  0  0  0
   -2.7019    5.0895    6.2349 C   0  0  0  0  0  0  0  0  0  0  0  0
   -2.2968    5.1794    4.8641 C   0  0  0  0  0  0  0  0  0  0  0  0
   -2.8703    6.0797    4.0053 C   0  0  0  0  0  0  0  0  0  0  0  0
   -3.8483    6.9195    4.4521 C   0  0  0  0  0  0  0  0  0  0  0  0
   -4.2717    6.8739    5.7655 C   0  0  0  0  0  0  0  0  0  0  0  0
   -3.6829    5.9462    6.6456 C   0  0  0  0  0  0  0  0  0  0  0  0
   -4.2712    6.2310    7.8645 C   0  0  0  0  0  0  0  0  0  0  0  0
   -5.1836    7.3173    7.7095 C   0  0  0  0  0  0  0  0  0  0  0  0
   -5.1326    7.6423    6.4322 N   0  0  0  0  0  0  0  0  0  0  0  0
   -5.8398    7.8625    8.8559 C   0  0  0  0  0  0  0  0  0  0  0  0
   -6.3713    8.3273    9.7874 N   0  0  0  0  0  0  0  0  0  0  0  0
   -3.9027    5.1835    9.6379 I   0  0  0  0  0  0  0  0  0  0  0  0
   -0.6496    1.9038    5.9369 O   0  0  0  0  0  0  0  0  0  0  0  0
  1  2  1  0
  2  3  1  0
  2  4  1  0
  2  5  1  0
  5  6  1  0
  6  7  1  0
  7  8  1  0
  8  9  1  0
  9 10  1  0
 10 11  2  0
 11 12  1  0
 12 13  2  0
 13 14  1  0
 14 15  2  0
 15 16  1  0
 16 17  2  0
 17 18  1  0
 17 19  1  0
 19 20  3  0
 16 21  1  0
  7 22  1  0
 15 10  1  0
 18 14  1  0
M  END
$$$$
