
     RDKit          3D

 22 23  0  0  0  0  0  0  0  0999 V2000
    2.6763    1.4675   10.2005 C   0  0  0  0  0  0  0  0  0  0  0  0
    1.2129    1.5157   10.4782 C   0  0  0  0  0  0  0  0  0  0  0  0
    0.8750    2.6695   11.3462 C   0  0  0  0  0  0  0  0  0  0  0  0
    0.9040    0.2603   11.3579 C   0  0  0  0  0  0  0  0  0  0  0  0
    0.3789    1.3863    9.3462 N   0  0  0  0  0  0  0  0  0  0  0  0
    0.4563    2.1793    8.2207 C   0  0  0  0  0  0  0  0  0  0  0  0
   -0.4230    2.1107    7.0480 C   0  0  0  0  0  0  0  0  0  0  0  0
   -1.7434    2.8489    7.2099 C   0  0  0  0  0  0  0  0  0  0  0  0
   -2.1173    3.9040    6.6665 O   0  0  0  0  0  0  0  0  0  0  0  0
   -2.5032    4.9936    6.1058 C   0  0  0  0  0  0  0  0  0  0  0  0
   -1.9910    5.2352    4.7902 C   0  0  0  0  0  0  0  0  0  0  0  0
   -2.3488    6.3480    4.0755 C   0  0  0  0  0  0  0  0  0  0  0  0
   -3.2085    7.2583    4.6174 C   0  0  0  0  0  0  0  0  0  0  0  0
   -3.7273    7.0722    5.8833 C   0  0  0  0  0  0  0  0  0  0  0  0
   -3.3605    5.9268    6.6149 C   0  0  0  0  0  0  0  0  0  0  0  0
   -3.9816    6.1054    7.8377 C   0  0  0  0  0  0  0  0  0  0  0  0
   -4.6938    7.3421    7.8328 C   0  0  0  0  0  0  0  0  0  0  0  0
   -4.4991    7.8573    6.6343 N   0  0  0  0  0  0  0  0  0  0  0  0
   -5.3346    7.7971    9.0263 C   0  0  0  0  0  0  0  0  0  0  0  0
   -5.8407    8.1679   10.0124 N   0  0  0  0  0  0  0  0  0  0  0  0
   -3.9153    4.7355    9.4179 I   0  0  0  0  0  0  0  0  0  0  0  0
    0.1054    2.3390    5.8206 O   0  0  0  0  0  0  0  0  0  0  0  0
  1  2  1  0
  2  3  1  0
  2  4  1  0
  2  5  1  0
  5  6  1  0
  6  7  1  0
  7  8  1  0
  8  9  1  0
  9 10  1  0
 10 11  2  0
 11 12  1  0
 12 13  2  0
 13 14  1  0
 14 15  2  0
 15 16  1  0
 16 17  2  0
 17 18  1  0
 17 19  1  0
 19 20  3  0
 16 21  1  0
  7 22  1  0
 15 10  1  0
 18 14  1  0
M  END
$$$$
