
     RDKit          3D

 22 23  0  0  0  0  0  0  0  0999 V2000
    1.0693   -1.1047    8.1741 C   0  0  0  0  0  0  0  0  0  0  0  0
    1.0658    0.3827    8.2675 C   0  0  0  0  0  0  0  0  0  0  0  0
    1.1473    0.9992    6.9214 C   0  0  0  0  0  0  0  0  0  0  0  0
    2.4144    0.7699    8.9577 C   0  0  0  0  0  0  0  0  0  0  0  0
    0.0595    0.9336    9.0904 N   0  0  0  0  0  0  0  0  0  0  0  0
   -0.2806    2.2696    9.1252 C   0  0  0  0  0  0  0  0  0  0  0  0
   -1.3184    2.8800    9.9639 C   0  0  0  0  0  0  0  0  0  0  0  0
   -2.5581    3.3258    9.2031 C   0  0  0  0  0  0  0  0  0  0  0  0
   -2.6450    4.1355    8.2623 O   0  0  0  0  0  0  0  0  0  0  0  0
   -2.7353    4.9716    7.2910 C   0  0  0  0  0  0  0  0  0  0  0  0
   -1.8410    4.7540    6.1936 C   0  0  0  0  0  0  0  0  0  0  0  0
   -1.8573    5.5598    5.0857 C   0  0  0  0  0  0  0  0  0  0  0  0
   -2.7369    6.6001    5.0129 C   0  0  0  0  0  0  0  0  0  0  0  0
   -3.6174    6.8532    6.0459 C   0  0  0  0  0  0  0  0  0  0  0  0
   -3.6008    6.0224    7.1823 C   0  0  0  0  0  0  0  0  0  0  0  0
   -4.5278    6.6041    8.0279 C   0  0  0  0  0  0  0  0  0  0  0  0
   -5.0743    7.7667    7.4062 C   0  0  0  0  0  0  0  0  0  0  0  0
   -4.4873    7.8463    6.2277 N   0  0  0  0  0  0  0  0  0  0  0  0
   -5.9826    8.5986    8.1307 C   0  0  0  0  0  0  0  0  0  0  0  0
   -6.7367    9.2625    8.7280 N   0  0  0  0  0  0  0  0  0  0  0  0
   -5.0669    5.8491    9.9033 I   0  0  0  0  0  0  0  0  0  0  0  0
   -1.6629    2.2704   11.1247 O   0  0  0  0  0  0  0  0  0  0  0  0
  1  2  1  0
  2  3  1  0
  2  4  1  0
  2  5  1  0
  5  6  1  0
  6  7  1  0
  7  8  1  0
  8  9  1  0
  9 10  1  0
 10 11  2  0
 11 12  1  0
 12 13  2  0
 13 14  1  0
 14 15  2  0
 15 16  1  0
 16 17  2  0
 17 18  1  0
 17 19  1  0
 19 20  3  0
 16 21  1  0
  7 22  1  0
 15 10  1  0
 18 14  1  0
M  END
$$$$
