
     RDKit          3D

 22 23  0  0  0  0  0  0  0  0999 V2000
    1.9006   -0.3143   10.1561 C   0  0  0  0  0  0  0  0  0  0  0  0
    1.0548    0.8765   10.4522 C   0  0  0  0  0  0  0  0  0  0  0  0
    1.6656    1.7103   11.5154 C   0  0  0  0  0  0  0  0  0  0  0  0
   -0.2563    0.3188   11.0968 C   0  0  0  0  0  0  0  0  0  0  0  0
    0.6274    1.6092    9.3236 N   0  0  0  0  0  0  0  0  0  0  0  0
   -0.3003    1.1643    8.4053 C   0  0  0  0  0  0  0  0  0  0  0  0
   -0.8186    1.9194    7.2589 C   0  0  0  0  0  0  0  0  0  0  0  0
   -0.9866    3.4098    7.5135 C   0  0  0  0  0  0  0  0  0  0  0  0
   -1.6596    4.2380    6.8736 O   0  0  0  0  0  0  0  0  0  0  0  0
   -2.3543    5.0935    6.2131 C   0  0  0  0  0  0  0  0  0  0  0  0
   -2.0468    5.2056    4.8187 C   0  0  0  0  0  0  0  0  0  0  0  0
   -2.7349    6.0621    4.0002 C   0  0  0  0  0  0  0  0  0  0  0  0
   -3.7359    6.8356    4.5109 C   0  0  0  0  0  0  0  0  0  0  0  0
   -4.0683    6.7662    5.8492 C   0  0  0  0  0  0  0  0  0  0  0  0
   -3.3619    5.8836    6.6880 C   0  0  0  0  0  0  0  0  0  0  0  0
   -3.8869    6.1324    7.9431 C   0  0  0  0  0  0  0  0  0  0  0  0
   -4.8788    7.1542    7.8492 C   0  0  0  0  0  0  0  0  0  0  0  0
   -4.9337    7.4772    6.5716 N   0  0  0  0  0  0  0  0  0  0  0  0
   -5.4938    7.6579    9.0367 C   0  0  0  0  0  0  0  0  0  0  0  0
   -6.0084    8.0530   10.0089 N   0  0  0  0  0  0  0  0  0  0  0  0
   -3.3331    5.1185    9.6876 I   0  0  0  0  0  0  0  0  0  0  0  0
   -0.2790    1.7010    6.0345 O   0  0  0  0  0  0  0  0  0  0  0  0
  1  2  1  0
  2  3  1  0
  2  4  1  0
  2  5  1  0
  5  6  1  0
  6  7  1  0
  7  8  1  0
  8  9  1  0
  9 10  1  0
 10 11  2  0
 11 12  1  0
 12 13  2  0
 13 14  1  0
 14 15  2  0
 15 16  1  0
 16 17  2  0
 17 18  1  0
 17 19  1  0
 19 20  3  0
 16 21  1  0
  7 22  1  0
 15 10  1  0
 18 14  1  0
M  END
$$$$
