
     RDKit          3D

 22 23  0  0  0  0  0  0  0  0999 V2000
    0.0956   -0.1026   10.9756 C   0  0  0  0  0  0  0  0  0  0  0  0
    1.0004    0.7596   10.1638 C   0  0  0  0  0  0  0  0  0  0  0  0
    2.3772    0.2095   10.1394 C   0  0  0  0  0  0  0  0  0  0  0  0
    1.1297    2.1038   10.9523 C   0  0  0  0  0  0  0  0  0  0  0  0
    0.5064    1.1247    8.8925 N   0  0  0  0  0  0  0  0  0  0  0  0
   -0.6233    1.8863    8.6795 C   0  0  0  0  0  0  0  0  0  0  0  0
   -1.0790    2.4227    7.3920 C   0  0  0  0  0  0  0  0  0  0  0  0
   -0.8920    3.9245    7.2363 C   0  0  0  0  0  0  0  0  0  0  0  0
   -1.6439    4.7500    6.6874 O   0  0  0  0  0  0  0  0  0  0  0  0
   -2.4206    5.6020    6.1204 C   0  0  0  0  0  0  0  0  0  0  0  0
   -2.1768    5.8415    4.7295 C   0  0  0  0  0  0  0  0  0  0  0  0
   -2.9531    6.7070    4.0048 C   0  0  0  0  0  0  0  0  0  0  0  0
   -3.9835    7.3665    4.6087 C   0  0  0  0  0  0  0  0  0  0  0  0
   -4.2573    7.1721    5.9479 C   0  0  0  0  0  0  0  0  0  0  0  0
   -3.4600    6.2804    6.6901 C   0  0  0  0  0  0  0  0  0  0  0  0
   -3.9508    6.3951    7.9780 C   0  0  0  0  0  0  0  0  0  0  0  0
   -5.0127    7.3483    7.9987 C   0  0  0  0  0  0  0  0  0  0  0  0
   -5.1397    7.7630    6.7531 N   0  0  0  0  0  0  0  0  0  0  0  0
   -5.6131    7.7153    9.2424 C   0  0  0  0  0  0  0  0  0  0  0  0
   -6.1214    8.0057   10.2541 N   0  0  0  0  0  0  0  0  0  0  0  0
   -3.2610    5.2930    9.6174 I   0  0  0  0  0  0  0  0  0  0  0  0
   -0.7275    1.7763    6.2533 O   0  0  0  0  0  0  0  0  0  0  0  0
  1  2  1  0
  2  3  1  0
  2  4  1  0
  2  5  1  0
  5  6  1  0
  6  7  1  0
  7  8  1  0
  8  9  1  0
  9 10  1  0
 10 11  2  0
 11 12  1  0
 12 13  2  0
 13 14  1  0
 14 15  2  0
 15 16  1  0
 16 17  2  0
 17 18  1  0
 17 19  1  0
 19 20  3  0
 16 21  1  0
  7 22  1  0
 15 10  1  0
 18 14  1  0
M  END
$$$$
