
     RDKit          3D

 22 23  0  0  0  0  0  0  0  0999 V2000
    1.7224    2.4572   10.8295 C   0  0  0  0  0  0  0  0  0  0  0  0
    1.0048    1.1954   10.4921 C   0  0  0  0  0  0  0  0  0  0  0  0
    0.4956    0.5308   11.7159 C   0  0  0  0  0  0  0  0  0  0  0  0
    2.0949    0.2190    9.9411 C   0  0  0  0  0  0  0  0  0  0  0  0
    0.0495    1.3021    9.4579 N   0  0  0  0  0  0  0  0  0  0  0  0
    0.2286    2.0238    8.2966 C   0  0  0  0  0  0  0  0  0  0  0  0
   -0.7628    2.2161    7.2320 C   0  0  0  0  0  0  0  0  0  0  0  0
   -1.8722    3.1980    7.5778 C   0  0  0  0  0  0  0  0  0  0  0  0
   -2.2079    4.2358    6.9790 O   0  0  0  0  0  0  0  0  0  0  0  0
   -2.5548    5.3075    6.3611 C   0  0  0  0  0  0  0  0  0  0  0  0
   -1.9568    5.5094    5.0754 C   0  0  0  0  0  0  0  0  0  0  0  0
   -2.2654    6.5995    4.3052 C   0  0  0  0  0  0  0  0  0  0  0  0
   -3.1579    7.5251    4.7611 C   0  0  0  0  0  0  0  0  0  0  0  0
   -3.7593    7.3773    5.9952 C   0  0  0  0  0  0  0  0  0  0  0  0
   -3.4428    6.2550    6.7839 C   0  0  0  0  0  0  0  0  0  0  0  0
   -4.1431    6.4702    7.9570 C   0  0  0  0  0  0  0  0  0  0  0  0
   -4.8520    7.7055    7.8675 C   0  0  0  0  0  0  0  0  0  0  0  0
   -4.5781    8.1842    6.6694 N   0  0  0  0  0  0  0  0  0  0  0  0
   -5.5696    8.1961    9.0017 C   0  0  0  0  0  0  0  0  0  0  0  0
   -6.1387    8.5999    9.9394 N   0  0  0  0  0  0  0  0  0  0  0  0
   -4.1827    5.1492    9.5792 I   0  0  0  0  0  0  0  0  0  0  0  0
   -0.3292    2.4117    5.9626 O   0  0  0  0  0  0  0  0  0  0  0  0
  1  2  1  0
  2  3  1  0
  2  4  1  0
  2  5  1  0
  5  6  1  0
  6  7  1  0
  7  8  1  0
  8  9  1  0
  9 10  1  0
 10 11  2  0
 11 12  1  0
 12 13  2  0
 13 14  1  0
 14 15  2  0
 15 16  1  0
 16 17  2  0
 17 18  1  0
 17 19  1  0
 19 20  3  0
 16 21  1  0
  7 22  1  0
 15 10  1  0
 18 14  1  0
M  END
$$$$
