
     RDKit          3D

 22 23  0  0  0  0  0  0  0  0999 V2000
    0.4378    3.1164   10.7885 C   0  0  0  0  0  0  0  0  0  0  0  0
    0.8961    1.8112   10.2339 C   0  0  0  0  0  0  0  0  0  0  0  0
    0.6515    0.7101   11.1965 C   0  0  0  0  0  0  0  0  0  0  0  0
    2.4539    1.9108   10.1406 C   0  0  0  0  0  0  0  0  0  0  0  0
    0.4658    1.5294    8.9191 N   0  0  0  0  0  0  0  0  0  0  0  0
   -0.0933    2.4539    8.0620 C   0  0  0  0  0  0  0  0  0  0  0  0
   -0.7830    2.1623    6.8002 C   0  0  0  0  0  0  0  0  0  0  0  0
   -2.1601    2.7970    6.6766 C   0  0  0  0  0  0  0  0  0  0  0  0
   -2.4603    3.9313    6.2623 O   0  0  0  0  0  0  0  0  0  0  0  0
   -2.7700    5.1023    5.8341 C   0  0  0  0  0  0  0  0  0  0  0  0
   -2.2583    5.4513    4.5427 C   0  0  0  0  0  0  0  0  0  0  0  0
   -2.5402    6.6605    3.9634 C   0  0  0  0  0  0  0  0  0  0  0  0
   -3.3215    7.5651    4.6210 C   0  0  0  0  0  0  0  0  0  0  0  0
   -3.8363    7.2772    5.8693 C   0  0  0  0  0  0  0  0  0  0  0  0
   -3.5476    6.0332    6.4616 C   0  0  0  0  0  0  0  0  0  0  0  0
   -4.1374    6.1189    7.7096 C   0  0  0  0  0  0  0  0  0  0  0  0
   -4.7541    7.3975    7.8569 C   0  0  0  0  0  0  0  0  0  0  0  0
   -4.5367    8.0280    6.7190 N   0  0  0  0  0  0  0  0  0  0  0  0
   -5.3430    7.7619    9.1069 C   0  0  0  0  0  0  0  0  0  0  0  0
   -5.8106    8.0748   10.1314 N   0  0  0  0  0  0  0  0  0  0  0  0
   -4.1543    4.5796    9.1267 I   0  0  0  0  0  0  0  0  0  0  0  0
   -0.0960    2.2798    5.6374 O   0  0  0  0  0  0  0  0  0  0  0  0
  1  2  1  0
  2  3  1  0
  2  4  1  0
  2  5  1  0
  5  6  1  0
  6  7  1  0
  7  8  1  0
  8  9  1  0
  9 10  1  0
 10 11  2  0
 11 12  1  0
 12 13  2  0
 13 14  1  0
 14 15  2  0
 15 16  1  0
 16 17  2  0
 17 18  1  0
 17 19  1  0
 19 20  3  0
 16 21  1  0
  7 22  1  0
 15 10  1  0
 18 14  1  0
M  END
$$$$
