
     RDKit          3D

 22 23  0  0  0  0  0  0  0  0999 V2000
    1.8050    3.0488   10.1690 C   0  0  0  0  0  0  0  0  0  0  0  0
    0.5430    2.2614   10.2596 C   0  0  0  0  0  0  0  0  0  0  0  0
   -0.4774    2.9839   11.0569 C   0  0  0  0  0  0  0  0  0  0  0  0
    0.8879    0.9996   11.1165 C   0  0  0  0  0  0  0  0  0  0  0  0
    0.0590    1.7533    9.0344 N   0  0  0  0  0  0  0  0  0  0  0  0
   -0.3906    2.5291    7.9868 C   0  0  0  0  0  0  0  0  0  0  0  0
   -1.0055    2.0419    6.7468 C   0  0  0  0  0  0  0  0  0  0  0  0
   -2.3329    2.7011    6.4034 C   0  0  0  0  0  0  0  0  0  0  0  0
   -2.5775    3.9062    6.2130 O   0  0  0  0  0  0  0  0  0  0  0  0
   -2.8302    5.1504    6.0160 C   0  0  0  0  0  0  0  0  0  0  0  0
   -2.2670    5.7225    4.8298 C   0  0  0  0  0  0  0  0  0  0  0  0
   -2.4860    7.0322    4.4928 C   0  0  0  0  0  0  0  0  0  0  0  0
   -3.2525    7.8237    5.2974 C   0  0  0  0  0  0  0  0  0  0  0  0
   -3.8152    7.3200    6.4533 C   0  0  0  0  0  0  0  0  0  0  0  0
   -3.5911    5.9732    6.7963 C   0  0  0  0  0  0  0  0  0  0  0  0
   -4.2148    5.8389    8.0235 C   0  0  0  0  0  0  0  0  0  0  0  0
   -4.7874    7.0892    8.4049 C   0  0  0  0  0  0  0  0  0  0  0  0
   -4.5124    7.9197    7.4178 N   0  0  0  0  0  0  0  0  0  0  0  0
   -5.3998    7.2275    9.6885 C   0  0  0  0  0  0  0  0  0  0  0  0
   -5.9181    7.3471   10.7294 N   0  0  0  0  0  0  0  0  0  0  0  0
   -4.3319    4.0548    9.1104 I   0  0  0  0  0  0  0  0  0  0  0  0
   -0.2331    1.9164    5.6397 O   0  0  0  0  0  0  0  0  0  0  0  0
  1  2  1  0
  2  3  1  0
  2  4  1  0
  2  5  1  0
  5  6  1  0
  6  7  1  0
  7  8  1  0
  8  9  1  0
  9 10  1  0
 10 11  2  0
 11 12  1  0
 12 13  2  0
 13 14  1  0
 14 15  2  0
 15 16  1  0
 16 17  2  0
 17 18  1  0
 17 19  1  0
 19 20  3  0
 16 21  1  0
  7 22  1  0
 15 10  1  0
 18 14  1  0
M  END
$$$$
