
     RDKit          3D

 22 23  0  0  0  0  0  0  0  0999 V2000
   -0.2601    0.0924   11.2858 C   0  0  0  0  0  0  0  0  0  0  0  0
    0.8891    0.5980   10.4828 C   0  0  0  0  0  0  0  0  0  0  0  0
    2.0296   -0.3483   10.5341 C   0  0  0  0  0  0  0  0  0  0  0  0
    1.4036    1.8720   11.2294 C   0  0  0  0  0  0  0  0  0  0  0  0
    0.5681    1.0389    9.1804 N   0  0  0  0  0  0  0  0  0  0  0  0
   -0.5861    1.7140    8.8436 C   0  0  0  0  0  0  0  0  0  0  0  0
   -0.9584    2.1829    7.5039 C   0  0  0  0  0  0  0  0  0  0  0  0
   -0.7901    3.6802    7.2939 C   0  0  0  0  0  0  0  0  0  0  0  0
   -1.5764    4.4852    6.7627 O   0  0  0  0  0  0  0  0  0  0  0  0
   -2.3882    5.3159    6.2138 C   0  0  0  0  0  0  0  0  0  0  0  0
   -2.2185    5.5185    4.8061 C   0  0  0  0  0  0  0  0  0  0  0  0
   -3.0383    6.3585    4.0994 C   0  0  0  0  0  0  0  0  0  0  0  0
   -4.0414    7.0276    4.7377 C   0  0  0  0  0  0  0  0  0  0  0  0
   -4.2440    6.8685    6.0942 C   0  0  0  0  0  0  0  0  0  0  0  0
   -3.4022    6.0029    6.8180 C   0  0  0  0  0  0  0  0  0  0  0  0
   -3.8266    6.1499    8.1260 C   0  0  0  0  0  0  0  0  0  0  0  0
   -4.8937    7.0962    8.1759 C   0  0  0  0  0  0  0  0  0  0  0  0
   -5.0883    7.4755    6.9277 N   0  0  0  0  0  0  0  0  0  0  0  0
   -5.4319    7.4935    9.4386 C   0  0  0  0  0  0  0  0  0  0  0  0
   -5.8796    7.7994   10.4740 N   0  0  0  0  0  0  0  0  0  0  0  0
   -3.0440    5.0981    9.7568 I   0  0  0  0  0  0  0  0  0  0  0  0
   -0.5132    1.4953    6.4236 O   0  0  0  0  0  0  0  0  0  0  0  0
  1  2  1  0
  2  3  1  0
  2  4  1  0
  2  5  1  0
  5  6  1  0
  6  7  1  0
  7  8  1  0
  8  9  1  0
  9 10  1  0
 10 11  2  0
 11 12  1  0
 12 13  2  0
 13 14  1  0
 14 15  2  0
 15 16  1  0
 16 17  2  0
 17 18  1  0
 17 19  1  0
 19 20  3  0
 16 21  1  0
  7 22  1  0
 15 10  1  0
 18 14  1  0
M  END
$$$$
