
     RDKit          3D

 22 23  0  0  0  0  0  0  0  0999 V2000
    2.3629    0.6452   10.2197 C   0  0  0  0  0  0  0  0  0  0  0  0
    1.0663    1.3572   10.4006 C   0  0  0  0  0  0  0  0  0  0  0  0
    1.2837    2.7402   10.8893 C   0  0  0  0  0  0  0  0  0  0  0  0
    0.3434    0.6332   11.5833 C   0  0  0  0  0  0  0  0  0  0  0  0
    0.1713    1.2678    9.3122 N   0  0  0  0  0  0  0  0  0  0  0  0
    0.2663    2.0133    8.1559 C   0  0  0  0  0  0  0  0  0  0  0  0
   -0.7059    2.0392    7.0572 C   0  0  0  0  0  0  0  0  0  0  0  0
   -1.9206    2.9183    7.3147 C   0  0  0  0  0  0  0  0  0  0  0  0
   -2.2129    4.0126    6.7998 O   0  0  0  0  0  0  0  0  0  0  0  0
   -2.5143    5.1427    6.2679 C   0  0  0  0  0  0  0  0  0  0  0  0
   -1.9365    5.4031    4.9835 C   0  0  0  0  0  0  0  0  0  0  0  0
   -2.2022    6.5603    4.2999 C   0  0  0  0  0  0  0  0  0  0  0  0
   -3.0310    7.4976    4.8436 C   0  0  0  0  0  0  0  0  0  0  0  0
   -3.6105    7.2948    6.0804 C   0  0  0  0  0  0  0  0  0  0  0  0
   -3.3382    6.1039    6.7799 C   0  0  0  0  0  0  0  0  0  0  0  0
   -3.9975    6.2724    7.9840 C   0  0  0  0  0  0  0  0  0  0  0  0
   -4.6388    7.5472    8.0003 C   0  0  0  0  0  0  0  0  0  0  0  0
   -4.3671    8.0945    6.8314 N   0  0  0  0  0  0  0  0  0  0  0  0
   -5.3011    7.9937    9.1852 C   0  0  0  0  0  0  0  0  0  0  0  0
   -5.8258    8.3550   10.1652 N   0  0  0  0  0  0  0  0  0  0  0  0
   -4.0721    4.8433    9.5105 I   0  0  0  0  0  0  0  0  0  0  0  0
   -0.2552    2.2054    5.7894 O   0  0  0  0  0  0  0  0  0  0  0  0
  1  2  1  0
  2  3  1  0
  2  4  1  0
  2  5  1  0
  5  6  1  0
  6  7  1  0
  7  8  1  0
  8  9  1  0
  9 10  1  0
 10 11  2  0
 11 12  1  0
 12 13  2  0
 13 14  1  0
 14 15  2  0
 15 16  1  0
 16 17  2  0
 17 18  1  0
 17 19  1  0
 19 20  3  0
 16 21  1  0
  7 22  1  0
 15 10  1  0
 18 14  1  0
M  END
$$$$
