
     RDKit          3D

 22 23  0  0  0  0  0  0  0  0999 V2000
    2.4746    2.0715   10.5341 C   0  0  0  0  0  0  0  0  0  0  0  0
    1.3445    1.1185   10.3453 C   0  0  0  0  0  0  0  0  0  0  0  0
    0.3645    1.2311   11.4524 C   0  0  0  0  0  0  0  0  0  0  0  0
    1.9591   -0.3100   10.5104 C   0  0  0  0  0  0  0  0  0  0  0  0
    0.7603    1.1216    9.0600 N   0  0  0  0  0  0  0  0  0  0  0  0
   -0.0501    2.1239    8.5696 C   0  0  0  0  0  0  0  0  0  0  0  0
   -0.8642    2.0639    7.3503 C   0  0  0  0  0  0  0  0  0  0  0  0
   -2.1643    2.8504    7.4245 C   0  0  0  0  0  0  0  0  0  0  0  0
   -2.4707    3.9051    6.8397 O   0  0  0  0  0  0  0  0  0  0  0  0
   -2.7867    4.9941    6.2356 C   0  0  0  0  0  0  0  0  0  0  0  0
   -2.1545    5.2126    4.9691 C   0  0  0  0  0  0  0  0  0  0  0  0
   -2.4281    6.3225    4.2140 C   0  0  0  0  0  0  0  0  0  0  0  0
   -3.3180    7.2521    4.6670 C   0  0  0  0  0  0  0  0  0  0  0  0
   -3.9515    7.0887    5.8829 C   0  0  0  0  0  0  0  0  0  0  0  0
   -3.6709    5.9462    6.6560 C   0  0  0  0  0  0  0  0  0  0  0  0
   -4.3964    6.1484    7.8160 C   0  0  0  0  0  0  0  0  0  0  0  0
   -5.0848    7.3958    7.7346 C   0  0  0  0  0  0  0  0  0  0  0  0
   -4.7747    7.8942    6.5534 N   0  0  0  0  0  0  0  0  0  0  0  0
   -5.8227    7.8743    8.8609 C   0  0  0  0  0  0  0  0  0  0  0  0
   -6.4308    8.2463    9.7871 N   0  0  0  0  0  0  0  0  0  0  0  0
   -4.4950    4.7959    9.4094 I   0  0  0  0  0  0  0  0  0  0  0  0
   -0.2599    2.2505    6.1511 O   0  0  0  0  0  0  0  0  0  0  0  0
  1  2  1  0
  2  3  1  0
  2  4  1  0
  2  5  1  0
  5  6  1  0
  6  7  1  0
  7  8  1  0
  8  9  1  0
  9 10  1  0
 10 11  2  0
 11 12  1  0
 12 13  2  0
 13 14  1  0
 14 15  2  0
 15 16  1  0
 16 17  2  0
 17 18  1  0
 17 19  1  0
 19 20  3  0
 16 21  1  0
  7 22  1  0
 15 10  1  0
 18 14  1  0
M  END
$$$$
