
     RDKit          3D

 22 23  0  0  0  0  0  0  0  0999 V2000
    2.8284    1.4329   10.9835 C   0  0  0  0  0  0  0  0  0  0  0  0
    1.5685    0.8921   10.3994 C   0  0  0  0  0  0  0  0  0  0  0  0
    0.5830    0.5776   11.4618 C   0  0  0  0  0  0  0  0  0  0  0  0
    1.9435   -0.4981    9.7894 C   0  0  0  0  0  0  0  0  0  0  0  0
    1.0345    1.6342    9.3235 N   0  0  0  0  0  0  0  0  0  0  0  0
   -0.1079    1.2965    8.6288 C   0  0  0  0  0  0  0  0  0  0  0  0
   -0.6959    2.0416    7.5098 C   0  0  0  0  0  0  0  0  0  0  0  0
   -1.5122    3.2564    7.9249 C   0  0  0  0  0  0  0  0  0  0  0  0
   -1.9348    4.1891    7.2180 O   0  0  0  0  0  0  0  0  0  0  0  0
   -2.3707    5.1523    6.4881 C   0  0  0  0  0  0  0  0  0  0  0  0
   -1.8221    5.2339    5.1676 C   0  0  0  0  0  0  0  0  0  0  0  0
   -2.2251    6.1993    4.2829 C   0  0  0  0  0  0  0  0  0  0  0  0
   -3.1668    7.1137    4.6548 C   0  0  0  0  0  0  0  0  0  0  0  0
   -3.7238    7.0791    5.9177 C   0  0  0  0  0  0  0  0  0  0  0  0
   -3.3103    6.0847    6.8243 C   0  0  0  0  0  0  0  0  0  0  0  0
   -3.9924    6.3957    7.9865 C   0  0  0  0  0  0  0  0  0  0  0  0
   -4.7867    7.5621    7.7737 C   0  0  0  0  0  0  0  0  0  0  0  0
   -4.5781    7.9074    6.5179 N   0  0  0  0  0  0  0  0  0  0  0  0
   -5.5061    8.1400    8.8647 C   0  0  0  0  0  0  0  0  0  0  0  0
   -6.1021    8.6270    9.7444 N   0  0  0  0  0  0  0  0  0  0  0  0
   -3.8983    5.2832    9.7561 I   0  0  0  0  0  0  0  0  0  0  0  0
    0.0810    2.3310    6.4371 O   0  0  0  0  0  0  0  0  0  0  0  0
  1  2  1  0
  2  3  1  0
  2  4  1  0
  2  5  1  0
  5  6  1  0
  6  7  1  0
  7  8  1  0
  8  9  1  0
  9 10  1  0
 10 11  2  0
 11 12  1  0
 12 13  2  0
 13 14  1  0
 14 15  2  0
 15 16  1  0
 16 17  2  0
 17 18  1  0
 17 19  1  0
 19 20  3  0
 16 21  1  0
  7 22  1  0
 15 10  1  0
 18 14  1  0
M  END
$$$$
