
     RDKit          3D

 22 23  0  0  0  0  0  0  0  0999 V2000
    0.1850    1.1076   11.6757 C   0  0  0  0  0  0  0  0  0  0  0  0
    0.8606    1.0856   10.3475 C   0  0  0  0  0  0  0  0  0  0  0  0
    1.8496   -0.0168   10.2732 C   0  0  0  0  0  0  0  0  0  0  0  0
    1.7220    2.3892   10.2854 C   0  0  0  0  0  0  0  0  0  0  0  0
   -0.0003    1.1597    9.2309 N   0  0  0  0  0  0  0  0  0  0  0  0
    0.2330    1.9295    8.1108 C   0  0  0  0  0  0  0  0  0  0  0  0
   -0.6476    2.0537    6.9437 C   0  0  0  0  0  0  0  0  0  0  0  0
   -1.8856    2.9059    7.1796 C   0  0  0  0  0  0  0  0  0  0  0  0
   -2.2178    3.9676    6.6222 O   0  0  0  0  0  0  0  0  0  0  0  0
   -2.5605    5.0637    6.0464 C   0  0  0  0  0  0  0  0  0  0  0  0
   -1.9933    5.2935    4.7514 C   0  0  0  0  0  0  0  0  0  0  0  0
   -2.3014    6.4120    4.0227 C   0  0  0  0  0  0  0  0  0  0  0  0
   -3.1636    7.3395    4.5303 C   0  0  0  0  0  0  0  0  0  0  0  0
   -3.7345    7.1654    5.7753 C   0  0  0  0  0  0  0  0  0  0  0  0
   -3.4186    6.0140    6.5213 C   0  0  0  0  0  0  0  0  0  0  0  0
   -4.0829    6.2063    7.7190 C   0  0  0  0  0  0  0  0  0  0  0  0
   -4.7702    7.4566    7.6858 C   0  0  0  0  0  0  0  0  0  0  0  0
   -4.5194    7.9663    6.4954 N   0  0  0  0  0  0  0  0  0  0  0  0
   -5.4478    7.9256    8.8533 C   0  0  0  0  0  0  0  0  0  0  0  0
   -6.0139    8.3210    9.7963 N   0  0  0  0  0  0  0  0  0  0  0  0
   -4.1045    4.8376    9.3015 I   0  0  0  0  0  0  0  0  0  0  0  0
   -0.0974    2.3331    5.7366 O   0  0  0  0  0  0  0  0  0  0  0  0
  1  2  1  0
  2  3  1  0
  2  4  1  0
  2  5  1  0
  5  6  1  0
  6  7  1  0
  7  8  1  0
  8  9  1  0
  9 10  1  0
 10 11  2  0
 11 12  1  0
 12 13  2  0
 13 14  1  0
 14 15  2  0
 15 16  1  0
 16 17  2  0
 17 18  1  0
 17 19  1  0
 19 20  3  0
 16 21  1  0
  7 22  1  0
 15 10  1  0
 18 14  1  0
M  END
$$$$
