
     RDKit          3D

 22 23  0  0  0  0  0  0  0  0999 V2000
    1.7234   -0.7831    9.6461 C   0  0  0  0  0  0  0  0  0  0  0  0
    1.3381    0.4805   10.3359 C   0  0  0  0  0  0  0  0  0  0  0  0
    2.5199    1.3500   10.5502 C   0  0  0  0  0  0  0  0  0  0  0  0
    0.8937    0.0621   11.7757 C   0  0  0  0  0  0  0  0  0  0  0  0
    0.2239    1.1523    9.7875 N   0  0  0  0  0  0  0  0  0  0  0  0
    0.1718    1.6712    8.5108 C   0  0  0  0  0  0  0  0  0  0  0  0
   -0.9487    2.4115    7.9194 C   0  0  0  0  0  0  0  0  0  0  0  0
   -0.5499    3.7071    7.2289 C   0  0  0  0  0  0  0  0  0  0  0  0
   -1.2755    4.5374    6.6524 O   0  0  0  0  0  0  0  0  0  0  0  0
   -2.0248    5.3943    6.0567 C   0  0  0  0  0  0  0  0  0  0  0  0
   -1.7080    5.6547    4.6844 C   0  0  0  0  0  0  0  0  0  0  0  0
   -2.4486    6.5274    3.9315 C   0  0  0  0  0  0  0  0  0  0  0  0
   -3.5128    7.1743    4.4885 C   0  0  0  0  0  0  0  0  0  0  0  0
   -3.8570    6.9596    5.8084 C   0  0  0  0  0  0  0  0  0  0  0  0
   -3.0963    6.0604    6.5795 C   0  0  0  0  0  0  0  0  0  0  0  0
   -3.6558    6.1548    7.8408 C   0  0  0  0  0  0  0  0  0  0  0  0
   -4.7217    7.1034    7.8180 C   0  0  0  0  0  0  0  0  0  0  0  0
   -4.7839    7.5354    6.5734 N   0  0  0  0  0  0  0  0  0  0  0  0
   -5.3895    7.4502    9.0329 C   0  0  0  0  0  0  0  0  0  0  0  0
   -5.9373    7.7139   10.0312 N   0  0  0  0  0  0  0  0  0  0  0  0
   -3.0495    5.0320    9.4990 I   0  0  0  0  0  0  0  0  0  0  0  0
   -1.8602    1.7351    7.1781 O   0  0  0  0  0  0  0  0  0  0  0  0
  1  2  1  0
  2  3  1  0
  2  4  1  0
  2  5  1  0
  5  6  1  0
  6  7  1  0
  7  8  1  0
  8  9  1  0
  9 10  1  0
 10 11  2  0
 11 12  1  0
 12 13  2  0
 13 14  1  0
 14 15  2  0
 15 16  1  0
 16 17  2  0
 17 18  1  0
 17 19  1  0
 19 20  3  0
 16 21  1  0
  7 22  1  0
 15 10  1  0
 18 14  1  0
M  END
$$$$
