
     RDKit          3D

 22 23  0  0  0  0  0  0  0  0999 V2000
    2.0077    0.1218   10.5972 C   0  0  0  0  0  0  0  0  0  0  0  0
    1.1666    1.2549   10.1180 C   0  0  0  0  0  0  0  0  0  0  0  0
    1.8988    2.5403   10.2214 C   0  0  0  0  0  0  0  0  0  0  0  0
   -0.0012    1.3855   11.1498 C   0  0  0  0  0  0  0  0  0  0  0  0
    0.5355    1.0534    8.8712 N   0  0  0  0  0  0  0  0  0  0  0  0
    0.2093    2.0591    7.9860 C   0  0  0  0  0  0  0  0  0  0  0  0
   -0.6712    1.9367    6.8186 C   0  0  0  0  0  0  0  0  0  0  0  0
   -1.9691    2.7229    6.9264 C   0  0  0  0  0  0  0  0  0  0  0  0
   -2.2374    3.8492    6.4705 O   0  0  0  0  0  0  0  0  0  0  0  0
   -2.5146    5.0119    5.9995 C   0  0  0  0  0  0  0  0  0  0  0  0
   -1.9446    5.3213    4.7225 C   0  0  0  0  0  0  0  0  0  0  0  0
   -2.1872    6.5179    4.1008 C   0  0  0  0  0  0  0  0  0  0  0  0
   -2.9847    7.4480    4.7010 C   0  0  0  0  0  0  0  0  0  0  0  0
   -3.5553    7.1985    5.9333 C   0  0  0  0  0  0  0  0  0  0  0  0
   -3.3069    5.9673    6.5691 C   0  0  0  0  0  0  0  0  0  0  0  0
   -3.9479    6.0922    7.7883 C   0  0  0  0  0  0  0  0  0  0  0  0
   -4.5548    7.3809    7.8763 C   0  0  0  0  0  0  0  0  0  0  0  0
   -4.2819    7.9789    6.7327 N   0  0  0  0  0  0  0  0  0  0  0  0
   -5.1917    7.7843    9.0902 C   0  0  0  0  0  0  0  0  0  0  0  0
   -5.6975    8.1052   10.0938 N   0  0  0  0  0  0  0  0  0  0  0  0
   -4.0431    4.5908    9.2425 I   0  0  0  0  0  0  0  0  0  0  0  0
   -0.1357    2.0648    5.5797 O   0  0  0  0  0  0  0  0  0  0  0  0
  1  2  1  0
  2  3  1  0
  2  4  1  0
  2  5  1  0
  5  6  1  0
  6  7  1  0
  7  8  1  0
  8  9  1  0
  9 10  1  0
 10 11  2  0
 11 12  1  0
 12 13  2  0
 13 14  1  0
 14 15  2  0
 15 16  1  0
 16 17  2  0
 17 18  1  0
 17 19  1  0
 19 20  3  0
 16 21  1  0
  7 22  1  0
 15 10  1  0
 18 14  1  0
M  END
$$$$
