
     RDKit          3D

 22 23  0  0  0  0  0  0  0  0999 V2000
    1.4702   -0.4093   10.2825 C   0  0  0  0  0  0  0  0  0  0  0  0
    0.9611    0.9577   10.5877 C   0  0  0  0  0  0  0  0  0  0  0  0
    2.0808    1.9010   10.8228 C   0  0  0  0  0  0  0  0  0  0  0  0
    0.2453    0.8467   11.9736 C   0  0  0  0  0  0  0  0  0  0  0  0
   -0.0242    1.4466    9.7025 N   0  0  0  0  0  0  0  0  0  0  0  0
    0.1688    1.6570    8.3534 C   0  0  0  0  0  0  0  0  0  0  0  0
   -0.8188    2.1888    7.4074 C   0  0  0  0  0  0  0  0  0  0  0  0
   -1.5451    3.4344    7.8926 C   0  0  0  0  0  0  0  0  0  0  0  0
   -2.0863    4.3313    7.2211 O   0  0  0  0  0  0  0  0  0  0  0  0
   -2.6452    5.2577    6.5282 C   0  0  0  0  0  0  0  0  0  0  0  0
   -2.2169    5.3639    5.1656 C   0  0  0  0  0  0  0  0  0  0  0  0
   -2.7563    6.2933    4.3157 C   0  0  0  0  0  0  0  0  0  0  0  0
   -3.7216    7.1470    4.7637 C   0  0  0  0  0  0  0  0  0  0  0  0
   -4.1662    7.0865    6.0695 C   0  0  0  0  0  0  0  0  0  0  0  0
   -3.6125    6.1291    6.9404 C   0  0  0  0  0  0  0  0  0  0  0  0
   -4.2129    6.4044    8.1555 C   0  0  0  0  0  0  0  0  0  0  0  0
   -5.0978    7.5143    8.0077 C   0  0  0  0  0  0  0  0  0  0  0  0
   -5.0195    7.8620    6.7377 N   0  0  0  0  0  0  0  0  0  0  0  0
   -5.7590    8.0529    9.1543 C   0  0  0  0  0  0  0  0  0  0  0  0
   -6.3075    8.5085   10.0804 N   0  0  0  0  0  0  0  0  0  0  0  0
   -3.8960    5.3155    9.9139 I   0  0  0  0  0  0  0  0  0  0  0  0
   -0.4725    2.3146    6.1027 O   0  0  0  0  0  0  0  0  0  0  0  0
  1  2  1  0
  2  3  1  0
  2  4  1  0
  2  5  1  0
  5  6  1  0
  6  7  1  0
  7  8  1  0
  8  9  1  0
  9 10  1  0
 10 11  2  0
 11 12  1  0
 12 13  2  0
 13 14  1  0
 14 15  2  0
 15 16  1  0
 16 17  2  0
 17 18  1  0
 17 19  1  0
 19 20  3  0
 16 21  1  0
  7 22  1  0
 15 10  1  0
 18 14  1  0
M  END
$$$$
