
     RDKit          3D

 22 23  0  0  0  0  0  0  0  0999 V2000
    2.0906   -0.9127   10.1721 C   0  0  0  0  0  0  0  0  0  0  0  0
    0.7503   -0.4436   10.6242 C   0  0  0  0  0  0  0  0  0  0  0  0
    0.5419   -0.7389   12.0624 C   0  0  0  0  0  0  0  0  0  0  0  0
   -0.2898   -1.3470    9.8844 C   0  0  0  0  0  0  0  0  0  0  0  0
    0.4174    0.8783   10.2563 N   0  0  0  0  0  0  0  0  0  0  0  0
    0.0834    1.2759    8.9788 C   0  0  0  0  0  0  0  0  0  0  0  0
    0.0031    2.6580    8.4926 C   0  0  0  0  0  0  0  0  0  0  0  0
   -1.4077    3.2251    8.4440 C   0  0  0  0  0  0  0  0  0  0  0  0
   -1.9280    3.9447    7.5724 O   0  0  0  0  0  0  0  0  0  0  0  0
   -2.4650    4.6874    6.6720 C   0  0  0  0  0  0  0  0  0  0  0  0
   -1.9784    4.5030    5.3376 C   0  0  0  0  0  0  0  0  0  0  0  0
   -2.4891    5.2149    4.2843 C   0  0  0  0  0  0  0  0  0  0  0  0
   -3.4813    6.1271    4.4958 C   0  0  0  0  0  0  0  0  0  0  0  0
   -3.9821    6.3436    5.7641 C   0  0  0  0  0  0  0  0  0  0  0  0
   -3.4578    5.6091    6.8446 C   0  0  0  0  0  0  0  0  0  0  0  0
   -4.1135    6.1306    7.9450 C   0  0  0  0  0  0  0  0  0  0  0  0
   -5.0018    7.1648    7.5229 C   0  0  0  0  0  0  0  0  0  0  0  0
   -4.8713    7.2294    6.2119 N   0  0  0  0  0  0  0  0  0  0  0  0
   -5.7177    7.9272    8.4966 C   0  0  0  0  0  0  0  0  0  0  0  0
   -6.3051    8.5338    9.3048 N   0  0  0  0  0  0  0  0  0  0  0  0
   -3.8634    5.4563    9.9099 I   0  0  0  0  0  0  0  0  0  0  0  0
    0.8709    3.5757    8.9853 O   0  0  0  0  0  0  0  0  0  0  0  0
  1  2  1  0
  2  3  1  0
  2  4  1  0
  2  5  1  0
  5  6  1  0
  6  7  1  0
  7  8  1  0
  8  9  1  0
  9 10  1  0
 10 11  2  0
 11 12  1  0
 12 13  2  0
 13 14  1  0
 14 15  2  0
 15 16  1  0
 16 17  2  0
 17 18  1  0
 17 19  1  0
 19 20  3  0
 16 21  1  0
  7 22  1  0
 15 10  1  0
 18 14  1  0
M  END
$$$$
