
     RDKit          3D

 22 23  0  0  0  0  0  0  0  0999 V2000
    2.8192   -1.0629    9.8764 C   0  0  0  0  0  0  0  0  0  0  0  0
    1.7432   -0.2189   10.4687 C   0  0  0  0  0  0  0  0  0  0  0  0
    2.3172    0.9252   11.2171 C   0  0  0  0  0  0  0  0  0  0  0  0
    1.0631   -1.1023   11.5652 C   0  0  0  0  0  0  0  0  0  0  0  0
    0.7012    0.1386    9.5855 N   0  0  0  0  0  0  0  0  0  0  0  0
    0.5239    1.3974    9.0510 C   0  0  0  0  0  0  0  0  0  0  0  0
   -0.5296    1.8021    8.1132 C   0  0  0  0  0  0  0  0  0  0  0  0
   -0.6745    3.3070    7.9437 C   0  0  0  0  0  0  0  0  0  0  0  0
   -1.6291    4.0382    8.2638 O   0  0  0  0  0  0  0  0  0  0  0  0
   -2.6149    4.7931    8.5937 C   0  0  0  0  0  0  0  0  0  0  0  0
   -3.1966    4.5365    9.8772 C   0  0  0  0  0  0  0  0  0  0  0  0
   -4.2358    5.2900   10.3561 C   0  0  0  0  0  0  0  0  0  0  0  0
   -4.7419    6.3091    9.6034 C   0  0  0  0  0  0  0  0  0  0  0  0
   -4.2177    6.5944    8.3583 C   0  0  0  0  0  0  0  0  0  0  0  0
   -3.1481    5.8206    7.8692 C   0  0  0  0  0  0  0  0  0  0  0  0
   -2.9407    6.3158    6.5946 C   0  0  0  0  0  0  0  0  0  0  0  0
   -3.8804    7.3569    6.3305 C   0  0  0  0  0  0  0  0  0  0  0  0
   -4.6026    7.4681    7.4285 N   0  0  0  0  0  0  0  0  0  0  0  0
   -3.9305    7.9559    5.0341 C   0  0  0  0  0  0  0  0  0  0  0  0
   -3.9570    8.4329    3.9673 N   0  0  0  0  0  0  0  0  0  0  0  0
   -1.4408    5.6590    5.2918 I   0  0  0  0  0  0  0  0  0  0  0  0
   -0.6133    1.1753    6.9141 O   0  0  0  0  0  0  0  0  0  0  0  0
  1  2  1  0
  2  3  1  0
  2  4  1  0
  2  5  1  0
  5  6  1  0
  6  7  1  0
  7  8  1  0
  8  9  1  0
  9 10  1  0
 10 11  2  0
 11 12  1  0
 12 13  2  0
 13 14  1  0
 14 15  2  0
 15 16  1  0
 16 17  2  0
 17 18  1  0
 17 19  1  0
 19 20  3  0
 16 21  1  0
  7 22  1  0
 15 10  1  0
 18 14  1  0
M  END
$$$$
