
     RDKit          3D

 22 23  0  0  0  0  0  0  0  0999 V2000
    1.1629    1.7041   11.8615 C   0  0  0  0  0  0  0  0  0  0  0  0
    0.2265    0.6571   11.3635 C   0  0  0  0  0  0  0  0  0  0  0  0
   -0.8504    0.3959   12.3490 C   0  0  0  0  0  0  0  0  0  0  0  0
    1.0522   -0.6703   11.3249 C   0  0  0  0  0  0  0  0  0  0  0  0
   -0.2374    0.8406   10.0427 N   0  0  0  0  0  0  0  0  0  0  0  0
    0.1643    1.8600    9.2053 C   0  0  0  0  0  0  0  0  0  0  0  0
   -0.3678    2.1459    7.8680 C   0  0  0  0  0  0  0  0  0  0  0  0
   -1.7277    2.8279    7.8665 C   0  0  0  0  0  0  0  0  0  0  0  0
   -2.0976    3.8256    7.2215 O   0  0  0  0  0  0  0  0  0  0  0  0
   -2.4792    4.8557    6.5552 C   0  0  0  0  0  0  0  0  0  0  0  0
   -2.0126    4.9338    5.2033 C   0  0  0  0  0  0  0  0  0  0  0  0
   -2.3714    5.9688    4.3804 C   0  0  0  0  0  0  0  0  0  0  0  0
   -3.1880    6.9576    4.8460 C   0  0  0  0  0  0  0  0  0  0  0  0
   -3.6619    6.9292    6.1426 C   0  0  0  0  0  0  0  0  0  0  0  0
   -3.2942    5.8635    6.9856 C   0  0  0  0  0  0  0  0  0  0  0  0
   -3.8634    6.1953    8.2016 C   0  0  0  0  0  0  0  0  0  0  0  0
   -4.5460    7.4428    8.0821 C   0  0  0  0  0  0  0  0  0  0  0  0
   -4.3857    7.8147    6.8269 N   0  0  0  0  0  0  0  0  0  0  0  0
   -5.1295    8.0464    9.2385 C   0  0  0  0  0  0  0  0  0  0  0  0
   -5.6078    8.5216   10.1933 N   0  0  0  0  0  0  0  0  0  0  0  0
   -3.7684    5.0101    9.9234 I   0  0  0  0  0  0  0  0  0  0  0  0
    0.4507    2.7087    6.9454 O   0  0  0  0  0  0  0  0  0  0  0  0
  1  2  1  0
  2  3  1  0
  2  4  1  0
  2  5  1  0
  5  6  1  0
  6  7  1  0
  7  8  1  0
  8  9  1  0
  9 10  1  0
 10 11  2  0
 11 12  1  0
 12 13  2  0
 13 14  1  0
 14 15  2  0
 15 16  1  0
 16 17  2  0
 17 18  1  0
 17 19  1  0
 19 20  3  0
 16 21  1  0
  7 22  1  0
 15 10  1  0
 18 14  1  0
M  END
$$$$
