
     RDKit          3D

 22 23  0  0  0  0  0  0  0  0999 V2000
   -1.1907   -0.6318    9.4052 C   0  0  0  0  0  0  0  0  0  0  0  0
   -0.6672    0.1895   10.5332 C   0  0  0  0  0  0  0  0  0  0  0  0
    0.3145   -0.5775   11.3374 C   0  0  0  0  0  0  0  0  0  0  0  0
   -1.8776    0.4092   11.4986 C   0  0  0  0  0  0  0  0  0  0  0  0
   -0.2338    1.4873   10.1849 N   0  0  0  0  0  0  0  0  0  0  0  0
   -0.6445    2.1763    9.0631 C   0  0  0  0  0  0  0  0  0  0  0  0
   -0.0740    3.4296    8.5565 C   0  0  0  0  0  0  0  0  0  0  0  0
   -0.3749    3.7090    7.0916 C   0  0  0  0  0  0  0  0  0  0  0  0
   -1.2060    4.4961    6.6039 O   0  0  0  0  0  0  0  0  0  0  0  0
   -2.0642    5.3086    6.0998 C   0  0  0  0  0  0  0  0  0  0  0  0
   -1.9953    5.4897    4.6807 C   0  0  0  0  0  0  0  0  0  0  0  0
   -2.8724    6.3086    4.0197 C   0  0  0  0  0  0  0  0  0  0  0  0
   -3.8368    6.9770    4.7157 C   0  0  0  0  0  0  0  0  0  0  0  0
   -3.9428    6.8381    6.0854 C   0  0  0  0  0  0  0  0  0  0  0  0
   -3.0421    5.9941    6.7623 C   0  0  0  0  0  0  0  0  0  0  0  0
   -3.3764    6.1581    8.0943 C   0  0  0  0  0  0  0  0  0  0  0  0
   -4.4490    7.0931    8.2034 C   0  0  0  0  0  0  0  0  0  0  0  0
   -4.7345    7.4494    6.9660 N   0  0  0  0  0  0  0  0  0  0  0  0
   -4.9030    7.5052    9.4942 C   0  0  0  0  0  0  0  0  0  0  0  0
   -5.2625    7.8591   10.5485 N   0  0  0  0  0  0  0  0  0  0  0  0
   -2.4695    5.1423    9.6830 I   0  0  0  0  0  0  0  0  0  0  0  0
   -0.2121    4.5569    9.2968 O   0  0  0  0  0  0  0  0  0  0  0  0
  1  2  1  0
  2  3  1  0
  2  4  1  0
  2  5  1  0
  5  6  1  0
  6  7  1  0
  7  8  1  0
  8  9  1  0
  9 10  1  0
 10 11  2  0
 11 12  1  0
 12 13  2  0
 13 14  1  0
 14 15  2  0
 15 16  1  0
 16 17  2  0
 17 18  1  0
 17 19  1  0
 19 20  3  0
 16 21  1  0
  7 22  1  0
 15 10  1  0
 18 14  1  0
M  END
$$$$
