
     RDKit          3D

 22 23  0  0  0  0  0  0  0  0999 V2000
    1.4103    1.9373   11.2474 C   0  0  0  0  0  0  0  0  0  0  0  0
    0.6172    0.8060   10.6885 C   0  0  0  0  0  0  0  0  0  0  0  0
   -0.6049    0.5659   11.4933 C   0  0  0  0  0  0  0  0  0  0  0  0
    1.4878   -0.4744   10.9072 C   0  0  0  0  0  0  0  0  0  0  0  0
    0.3856    0.8605    9.2968 N   0  0  0  0  0  0  0  0  0  0  0  0
   -0.3035    1.8683    8.6556 C   0  0  0  0  0  0  0  0  0  0  0  0
   -0.5803    1.9520    7.2170 C   0  0  0  0  0  0  0  0  0  0  0  0
   -1.9445    2.5309    6.8732 C   0  0  0  0  0  0  0  0  0  0  0  0
   -2.5832    3.4217    7.4622 O   0  0  0  0  0  0  0  0  0  0  0  0
   -3.2427    4.3416    8.0699 C   0  0  0  0  0  0  0  0  0  0  0  0
   -3.5832    4.0694    9.4342 C   0  0  0  0  0  0  0  0  0  0  0  0
   -4.2615    4.9817   10.1989 C   0  0  0  0  0  0  0  0  0  0  0  0
   -4.6318    6.1798    9.6615 C   0  0  0  0  0  0  0  0  0  0  0  0
   -4.3296    6.4884    8.3500 C   0  0  0  0  0  0  0  0  0  0  0  0
   -3.6303    5.5507    7.5669 C   0  0  0  0  0  0  0  0  0  0  0  0
   -3.5776    6.1408    6.3172 C   0  0  0  0  0  0  0  0  0  0  0  0
   -4.2457    7.4012    6.3583 C   0  0  0  0  0  0  0  0  0  0  0  0
   -4.6617    7.5404    7.6022 N   0  0  0  0  0  0  0  0  0  0  0  0
   -4.4130    8.1556    5.1562 C   0  0  0  0  0  0  0  0  0  0  0  0
   -4.5663    8.7818    4.1813 N   0  0  0  0  0  0  0  0  0  0  0  0
   -2.6164    5.3169    4.6512 I   0  0  0  0  0  0  0  0  0  0  0  0
    0.3738    2.4555    6.3960 O   0  0  0  0  0  0  0  0  0  0  0  0
  1  2  1  0
  2  3  1  0
  2  4  1  0
  2  5  1  0
  5  6  1  0
  6  7  1  0
  7  8  1  0
  8  9  1  0
  9 10  1  0
 10 11  2  0
 11 12  1  0
 12 13  2  0
 13 14  1  0
 14 15  2  0
 15 16  1  0
 16 17  2  0
 17 18  1  0
 17 19  1  0
 19 20  3  0
 16 21  1  0
  7 22  1  0
 15 10  1  0
 18 14  1  0
M  END
$$$$
