
     RDKit          3D

 22 23  0  0  0  0  0  0  0  0999 V2000
    0.3908    1.4094   11.9065 C   0  0  0  0  0  0  0  0  0  0  0  0
    0.0842    0.3113   10.9467 C   0  0  0  0  0  0  0  0  0  0  0  0
   -0.5540   -0.8350   11.6377 C   0  0  0  0  0  0  0  0  0  0  0  0
    1.4687   -0.2393   10.4719 C   0  0  0  0  0  0  0  0  0  0  0  0
   -0.5784    0.7096    9.7652 N   0  0  0  0  0  0  0  0  0  0  0  0
   -0.2203    1.7947    8.9933 C   0  0  0  0  0  0  0  0  0  0  0  0
   -0.9141    2.2726    7.7918 C   0  0  0  0  0  0  0  0  0  0  0  0
   -0.8217    3.7748    7.5697 C   0  0  0  0  0  0  0  0  0  0  0  0
   -1.5794    4.5130    6.9146 O   0  0  0  0  0  0  0  0  0  0  0  0
   -2.3621    5.2748    6.2380 C   0  0  0  0  0  0  0  0  0  0  0  0
   -2.1363    5.3054    4.8240 C   0  0  0  0  0  0  0  0  0  0  0  0
   -2.9207    6.0573    3.9895 C   0  0  0  0  0  0  0  0  0  0  0  0
   -3.9417    6.8027    4.5026 C   0  0  0  0  0  0  0  0  0  0  0  0
   -4.1981    6.8092    5.8593 C   0  0  0  0  0  0  0  0  0  0  0  0
   -3.3925    6.0338    6.7146 C   0  0  0  0  0  0  0  0  0  0  0  0
   -3.8659    6.3393    7.9778 C   0  0  0  0  0  0  0  0  0  0  0  0
   -4.9257    7.2891    7.8711 C   0  0  0  0  0  0  0  0  0  0  0  0
   -5.0686    7.5158    6.5797 N   0  0  0  0  0  0  0  0  0  0  0  0
   -5.5089    7.8380    9.0546 C   0  0  0  0  0  0  0  0  0  0  0  0
   -5.9758    8.2729   10.0339 N   0  0  0  0  0  0  0  0  0  0  0  0
   -3.1563    5.4888    9.7529 I   0  0  0  0  0  0  0  0  0  0  0  0
   -0.7367    1.6047    6.6255 O   0  0  0  0  0  0  0  0  0  0  0  0
  1  2  1  0
  2  3  1  0
  2  4  1  0
  2  5  1  0
  5  6  1  0
  6  7  1  0
  7  8  1  0
  8  9  1  0
  9 10  1  0
 10 11  2  0
 11 12  1  0
 12 13  2  0
 13 14  1  0
 14 15  2  0
 15 16  1  0
 16 17  2  0
 17 18  1  0
 17 19  1  0
 19 20  3  0
 16 21  1  0
  7 22  1  0
 15 10  1  0
 18 14  1  0
M  END
$$$$
