
     RDKit          3D

 22 23  0  0  0  0  0  0  0  0999 V2000
    2.1933    0.7416   11.1225 C   0  0  0  0  0  0  0  0  0  0  0  0
    0.7986    0.7302   10.5975 C   0  0  0  0  0  0  0  0  0  0  0  0
   -0.1795    0.9806   11.6836 C   0  0  0  0  0  0  0  0  0  0  0  0
    0.5220   -0.7435   10.1537 C   0  0  0  0  0  0  0  0  0  0  0  0
    0.5826    1.5099    9.4404 N   0  0  0  0  0  0  0  0  0  0  0  0
   -0.4910    1.3656    8.5870 C   0  0  0  0  0  0  0  0  0  0  0  0
   -0.7594    2.1651    7.3863 C   0  0  0  0  0  0  0  0  0  0  0  0
   -1.0753    3.6272    7.6637 C   0  0  0  0  0  0  0  0  0  0  0  0
   -1.6369    4.4561    6.9249 O   0  0  0  0  0  0  0  0  0  0  0  0
   -2.2164    5.3120    6.1619 C   0  0  0  0  0  0  0  0  0  0  0  0
   -1.7822    5.3277    4.7971 C   0  0  0  0  0  0  0  0  0  0  0  0
   -2.3413    6.1754    3.8773 C   0  0  0  0  0  0  0  0  0  0  0  0
   -3.3325    7.0331    4.2556 C   0  0  0  0  0  0  0  0  0  0  0  0
   -3.7839    7.0584    5.5602 C   0  0  0  0  0  0  0  0  0  0  0  0
   -3.2099    6.1847    6.5031 C   0  0  0  0  0  0  0  0  0  0  0  0
   -3.8256    6.5336    7.6914 C   0  0  0  0  0  0  0  0  0  0  0  0
   -4.7395    7.6042    7.4566 C   0  0  0  0  0  0  0  0  0  0  0  0
   -4.6625    7.8578    6.1645 N   0  0  0  0  0  0  0  0  0  0  0  0
   -5.4227    8.2087    8.5565 C   0  0  0  0  0  0  0  0  0  0  0  0
   -5.9658    8.6980    9.4686 N   0  0  0  0  0  0  0  0  0  0  0  0
   -3.4906    5.5887    9.5280 I   0  0  0  0  0  0  0  0  0  0  0  0
    0.0747    2.0491    6.3239 O   0  0  0  0  0  0  0  0  0  0  0  0
  1  2  1  0
  2  3  1  0
  2  4  1  0
  2  5  1  0
  5  6  1  0
  6  7  1  0
  7  8  1  0
  8  9  1  0
  9 10  1  0
 10 11  2  0
 11 12  1  0
 12 13  2  0
 13 14  1  0
 14 15  2  0
 15 16  1  0
 16 17  2  0
 17 18  1  0
 17 19  1  0
 19 20  3  0
 16 21  1  0
  7 22  1  0
 15 10  1  0
 18 14  1  0
M  END
$$$$
