
     RDKit          3D

 27 29  0  0  0  0  0  0  0  0999 V2000
   -1.0644    1.0152    9.4404 C   0  0  0  0  0  0  0  0  0  0  0  0
    0.2393    0.8564   10.1921 C   0  0  0  0  0  0  0  0  0  0  0  0
    0.9253    2.2014   10.2379 C   0  0  0  0  0  0  0  0  0  0  0  0
    2.2891    1.9939    9.6168 C   0  0  0  0  0  0  0  0  0  0  0  0
    2.2034    0.6276    8.9789 C   0  0  0  0  0  0  0  0  0  0  0  0
    1.1374   -0.0738    9.6082 N   0  0  0  0  0  0  0  0  0  0  0  0
    0.5530   -1.1067    8.8193 C   0  0  0  0  0  0  0  0  0  0  0  0
    1.6108   -2.0963    8.4885 C   0  0  0  0  0  0  0  0  0  0  0  0
    2.1816   -2.1991    7.2396 C   0  0  0  0  0  0  0  0  0  0  0  0
    3.1580   -3.1459    7.0200 C   0  0  0  0  0  0  0  0  0  0  0  0
    3.5979   -4.0101    8.0091 C   0  0  0  0  0  0  0  0  0  0  0  0
    3.0098   -3.8861    9.2506 C   0  0  0  0  0  0  0  0  0  0  0  0
    2.0329   -2.9453    9.4864 C   0  0  0  0  0  0  0  0  0  0  0  0
    1.1054    2.6638   11.5974 N   0  0  0  0  0  0  0  0  0  0  0  0
    0.0974    3.4344   12.1996 C   0  0  0  0  0  0  0  0  0  0  0  0
   -0.8936    3.7498   11.4427 O   0  0  0  0  0  0  0  0  0  0  0  0
    0.0460    3.9092   13.5587 C   0  0  0  0  0  0  0  0  0  0  0  0
    0.0805    5.2705   13.7944 C   0  0  0  0  0  0  0  0  0  0  0  0
    0.0350    5.8036   15.0660 C   0  0  0  0  0  0  0  0  0  0  0  0
   -0.0481    4.9593   16.1533 C   0  0  0  0  0  0  0  0  0  0  0  0
   -0.0812    3.6256   15.9094 C   0  0  0  0  0  0  0  0  0  0  0  0
   -0.0361    3.0561   14.6212 C   0  0  0  0  0  0  0  0  0  0  0  0
   -0.0768    1.6740   14.4978 O   0  0  0  0  0  0  0  0  0  0  0  0
   -0.1756    0.8629   15.6457 C   0  0  0  0  0  0  0  0  0  0  0  0
   -0.0964    5.4920   17.4726 N   0  0  0  0  0  0  0  0  0  0  0  0
   -0.2831    4.6535   18.6369 C   0  0  0  0  0  0  0  0  0  0  0  0
    0.0827    7.5387   15.2890 Cl  0  0  0  0  0  0  0  0  0  0  0  0
  1  2  1  0
  2  3  1  0
  3  4  1  0
  4  5  1  0
  5  6  1  0
  6  7  1  0
  7  8  1  0
  8  9  2  0
  9 10  1  0
 10 11  2  0
 11 12  1  0
 12 13  2  0
  3 14  1  0
 14 15  1  0
 15 16  2  0
 15 17  1  0
 17 18  2  0
 18 19  1  0
 19 20  2  0
 20 21  1  0
 21 22  2  0
 22 23  1  0
 23 24  1  0
 20 25  1  0
 25 26  1  0
 19 27  1  0
  6  2  1  0
 13  8  1  0
 22 17  1  0
M  END
$$$$
