
     RDKit          3D

 27 29  0  0  0  0  0  0  0  0999 V2000
   -1.3884    1.4621    8.8972 C   0  0  0  0  0  0  0  0  0  0  0  0
   -0.4809    1.0638   10.0407 C   0  0  0  0  0  0  0  0  0  0  0  0
    0.1545    2.3157   10.5980 C   0  0  0  0  0  0  0  0  0  0  0  0
    1.6491    2.0974   10.5113 C   0  0  0  0  0  0  0  0  0  0  0  0
    1.7961    0.8724    9.6405 C   0  0  0  0  0  0  0  0  0  0  0  0
    0.5588    0.1708    9.6738 N   0  0  0  0  0  0  0  0  0  0  0  0
    0.3100   -0.6574    8.5412 C   0  0  0  0  0  0  0  0  0  0  0  0
    1.4855   -1.5449    8.3451 C   0  0  0  0  0  0  0  0  0  0  0  0
    2.0758   -1.7524    7.1184 C   0  0  0  0  0  0  0  0  0  0  0  0
    3.1642   -2.5922    7.0269 C   0  0  0  0  0  0  0  0  0  0  0  0
    3.6991   -3.2457    8.1249 C   0  0  0  0  0  0  0  0  0  0  0  0
    3.0891   -3.0206    9.3413 C   0  0  0  0  0  0  0  0  0  0  0  0
    2.0009   -2.1844    9.4496 C   0  0  0  0  0  0  0  0  0  0  0  0
   -0.1996    2.5227   11.9859 N   0  0  0  0  0  0  0  0  0  0  0  0
    0.3534    3.6110   12.6804 C   0  0  0  0  0  0  0  0  0  0  0  0
    0.9987    4.4626   11.9643 O   0  0  0  0  0  0  0  0  0  0  0  0
    0.2814    3.8816   14.0935 C   0  0  0  0  0  0  0  0  0  0  0  0
    0.8815    3.0027   14.9752 C   0  0  0  0  0  0  0  0  0  0  0  0
    0.8572    3.1917   16.3416 C   0  0  0  0  0  0  0  0  0  0  0  0
    0.2137    4.2945   16.8627 C   0  0  0  0  0  0  0  0  0  0  0  0
   -0.3715    5.1497   15.9877 C   0  0  0  0  0  0  0  0  0  0  0  0
   -0.3609    4.9795   14.5889 C   0  0  0  0  0  0  0  0  0  0  0  0
   -0.9958    5.9242   13.7941 O   0  0  0  0  0  0  0  0  0  0  0  0
   -1.5739    7.0684   14.3787 C   0  0  0  0  0  0  0  0  0  0  0  0
    0.1789    4.5057   18.2702 N   0  0  0  0  0  0  0  0  0  0  0  0
   -0.4367    5.6748   18.8600 C   0  0  0  0  0  0  0  0  0  0  0  0
    1.6391    2.0365   17.3982 Cl  0  0  0  0  0  0  0  0  0  0  0  0
  1  2  1  0
  2  3  1  0
  3  4  1  0
  4  5  1  0
  5  6  1  0
  6  7  1  0
  7  8  1  0
  8  9  2  0
  9 10  1  0
 10 11  2  0
 11 12  1  0
 12 13  2  0
  3 14  1  0
 14 15  1  0
 15 16  2  0
 15 17  1  0
 17 18  2  0
 18 19  1  0
 19 20  2  0
 20 21  1  0
 21 22  2  0
 22 23  1  0
 23 24  1  0
 20 25  1  0
 25 26  1  0
 19 27  1  0
  6  2  1  0
 13  8  1  0
 22 17  1  0
M  END
$$$$
