
     RDKit          3D

 27 29  0  0  0  0  0  0  0  0999 V2000
   -1.4981    0.3282   11.0892 C   0  0  0  0  0  0  0  0  0  0  0  0
   -0.2057    1.0541   10.7851 C   0  0  0  0  0  0  0  0  0  0  0  0
   -0.4863    2.5383   10.7838 C   0  0  0  0  0  0  0  0  0  0  0  0
   -0.0491    3.0429    9.4261 C   0  0  0  0  0  0  0  0  0  0  0  0
    0.1762    1.7874    8.6176 C   0  0  0  0  0  0  0  0  0  0  0  0
    0.3703    0.7160    9.5334 N   0  0  0  0  0  0  0  0  0  0  0  0
    0.0530   -0.5749    9.0198 C   0  0  0  0  0  0  0  0  0  0  0  0
    1.3012   -1.3798    8.9773 C   0  0  0  0  0  0  0  0  0  0  0  0
    1.8125   -2.0348   10.0754 C   0  0  0  0  0  0  0  0  0  0  0  0
    2.9765   -2.7604    9.9467 C   0  0  0  0  0  0  0  0  0  0  0  0
    3.6652   -2.8633    8.7493 C   0  0  0  0  0  0  0  0  0  0  0  0
    3.1317   -2.1979    7.6652 C   0  0  0  0  0  0  0  0  0  0  0  0
    1.9695   -1.4686    7.7773 C   0  0  0  0  0  0  0  0  0  0  0  0
    0.2805    3.2283   11.7989 N   0  0  0  0  0  0  0  0  0  0  0  0
   -0.3926    3.8527   12.8617 C   0  0  0  0  0  0  0  0  0  0  0  0
   -1.6716    3.9277   12.7473 O   0  0  0  0  0  0  0  0  0  0  0  0
    0.1808    4.4151   14.0575 C   0  0  0  0  0  0  0  0  0  0  0  0
    1.3479    3.8719   14.5603 C   0  0  0  0  0  0  0  0  0  0  0  0
    1.9589    4.3538   15.6994 C   0  0  0  0  0  0  0  0  0  0  0  0
    1.3962    5.4175   16.3731 C   0  0  0  0  0  0  0  0  0  0  0  0
    0.2510    5.9421   15.8702 C   0  0  0  0  0  0  0  0  0  0  0  0
   -0.3925    5.4685   14.7094 C   0  0  0  0  0  0  0  0  0  0  0  0
   -1.5623    6.0884   14.2917 O   0  0  0  0  0  0  0  0  0  0  0  0
   -2.0281    7.2418   14.9534 C   0  0  0  0  0  0  0  0  0  0  0  0
    2.0132    5.9280   17.5501 N   0  0  0  0  0  0  0  0  0  0  0  0
    1.4667    7.0492   18.2835 C   0  0  0  0  0  0  0  0  0  0  0  0
    3.4363    3.6158   16.2782 Cl  0  0  0  0  0  0  0  0  0  0  0  0
  1  2  1  0
  2  3  1  0
  3  4  1  0
  4  5  1  0
  5  6  1  0
  6  7  1  0
  7  8  1  0
  8  9  2  0
  9 10  1  0
 10 11  2  0
 11 12  1  0
 12 13  2  0
  3 14  1  0
 14 15  1  0
 15 16  2  0
 15 17  1  0
 17 18  2  0
 18 19  1  0
 19 20  2  0
 20 21  1  0
 21 22  2  0
 22 23  1  0
 23 24  1  0
 20 25  1  0
 25 26  1  0
 19 27  1  0
  6  2  1  0
 13  8  1  0
 22 17  1  0
M  END
$$$$
