
     RDKit          3D

 27 29  0  0  0  0  0  0  0  0999 V2000
    1.2449   -0.8553   11.9084 C   0  0  0  0  0  0  0  0  0  0  0  0
    1.2303    0.3799   11.0344 C   0  0  0  0  0  0  0  0  0  0  0  0
   -0.2021    0.6747   10.6566 C   0  0  0  0  0  0  0  0  0  0  0  0
   -0.2381    0.6924    9.1442 C   0  0  0  0  0  0  0  0  0  0  0  0
    1.0955    0.1146    8.7337 C   0  0  0  0  0  0  0  0  0  0  0  0
    1.9820    0.2542    9.8377 N   0  0  0  0  0  0  0  0  0  0  0  0
    3.0581   -0.6798    9.8625 C   0  0  0  0  0  0  0  0  0  0  0  0
    2.6226   -1.9122    9.1558 C   0  0  0  0  0  0  0  0  0  0  0  0
    2.3445   -3.0941    9.8054 C   0  0  0  0  0  0  0  0  0  0  0  0
    1.9454   -4.1896    9.0714 C   0  0  0  0  0  0  0  0  0  0  0  0
    1.8092   -4.1573    7.6933 C   0  0  0  0  0  0  0  0  0  0  0  0
    2.0939   -2.9615    7.0675 C   0  0  0  0  0  0  0  0  0  0  0  0
    2.4938   -1.8577    7.7865 C   0  0  0  0  0  0  0  0  0  0  0  0
   -0.6270    1.9705   11.1412 N   0  0  0  0  0  0  0  0  0  0  0  0
   -0.9491    2.1236   12.4996 C   0  0  0  0  0  0  0  0  0  0  0  0
   -0.8853    1.0558   13.2139 O   0  0  0  0  0  0  0  0  0  0  0  0
   -1.3403    3.3312   13.1807 C   0  0  0  0  0  0  0  0  0  0  0  0
   -0.4336    4.3698   13.2768 C   0  0  0  0  0  0  0  0  0  0  0  0
   -0.7319    5.5575   13.9121 C   0  0  0  0  0  0  0  0  0  0  0  0
   -1.9778    5.7302   14.4777 C   0  0  0  0  0  0  0  0  0  0  0  0
   -2.8589    4.7041   14.3771 C   0  0  0  0  0  0  0  0  0  0  0  0
   -2.5790    3.4819   13.7340 C   0  0  0  0  0  0  0  0  0  0  0  0
   -3.5639    2.5042   13.6953 O   0  0  0  0  0  0  0  0  0  0  0  0
   -4.8047    2.7234   14.3257 C   0  0  0  0  0  0  0  0  0  0  0  0
   -2.3031    6.9494   15.1369 N   0  0  0  0  0  0  0  0  0  0  0  0
   -3.6180    7.2033   15.6847 C   0  0  0  0  0  0  0  0  0  0  0  0
    0.4667    6.8298   13.9952 Cl  0  0  0  0  0  0  0  0  0  0  0  0
  1  2  1  0
  2  3  1  0
  3  4  1  0
  4  5  1  0
  5  6  1  0
  6  7  1  0
  7  8  1  0
  8  9  2  0
  9 10  1  0
 10 11  2  0
 11 12  1  0
 12 13  2  0
  3 14  1  0
 14 15  1  0
 15 16  2  0
 15 17  1  0
 17 18  2  0
 18 19  1  0
 19 20  2  0
 20 21  1  0
 21 22  2  0
 22 23  1  0
 23 24  1  0
 20 25  1  0
 25 26  1  0
 19 27  1  0
  6  2  1  0
 13  8  1  0
 22 17  1  0
M  END
$$$$
