
     RDKit          3D

 27 29  0  0  0  0  0  0  0  0999 V2000
    2.7305    1.4737    9.0411 C   0  0  0  0  0  0  0  0  0  0  0  0
    1.2925    1.2144    9.4347 C   0  0  0  0  0  0  0  0  0  0  0  0
    1.2036    1.2381   10.9424 C   0  0  0  0  0  0  0  0  0  0  0  0
    0.6202   -0.0983   11.3456 C   0  0  0  0  0  0  0  0  0  0  0  0
    0.6851   -0.9279   10.0853 C   0  0  0  0  0  0  0  0  0  0  0  0
    0.7823   -0.0308    8.9853 N   0  0  0  0  0  0  0  0  0  0  0  0
    1.3900   -0.5787    7.8185 C   0  0  0  0  0  0  0  0  0  0  0  0
    2.0216   -1.8728    8.1853 C   0  0  0  0  0  0  0  0  0  0  0  0
    1.7625   -3.0515    7.5223 C   0  0  0  0  0  0  0  0  0  0  0  0
    2.3935   -4.2069    7.9286 C   0  0  0  0  0  0  0  0  0  0  0  0
    3.2875   -4.2386    8.9863 C   0  0  0  0  0  0  0  0  0  0  0  0
    3.5291   -3.0445    9.6331 C   0  0  0  0  0  0  0  0  0  0  0  0
    2.9067   -1.8814    9.2393 C   0  0  0  0  0  0  0  0  0  0  0  0
    0.3198    2.2847   11.4094 N   0  0  0  0  0  0  0  0  0  0  0  0
    0.2902    2.5981   12.7782 C   0  0  0  0  0  0  0  0  0  0  0  0
    0.9024    1.7751   13.5543 O   0  0  0  0  0  0  0  0  0  0  0  0
   -0.3428    3.7281   13.4088 C   0  0  0  0  0  0  0  0  0  0  0  0
    0.2922    4.3457   14.4696 C   0  0  0  0  0  0  0  0  0  0  0  0
   -0.2480    5.4326   15.1254 C   0  0  0  0  0  0  0  0  0  0  0  0
   -1.4670    5.9333   14.7191 C   0  0  0  0  0  0  0  0  0  0  0  0
   -2.0805    5.3189   13.6771 C   0  0  0  0  0  0  0  0  0  0  0  0
   -1.5503    4.2081   12.9909 C   0  0  0  0  0  0  0  0  0  0  0  0
   -2.2727    3.6641   11.9376 O   0  0  0  0  0  0  0  0  0  0  0  0
   -3.5283    4.1995   11.5885 C   0  0  0  0  0  0  0  0  0  0  0  0
   -2.0393    7.0544   15.3841 N   0  0  0  0  0  0  0  0  0  0  0  0
   -3.2857    7.6519   14.9560 C   0  0  0  0  0  0  0  0  0  0  0  0
    0.6132    6.1643   16.4616 Cl  0  0  0  0  0  0  0  0  0  0  0  0
  1  2  1  0
  2  3  1  0
  3  4  1  0
  4  5  1  0
  5  6  1  0
  6  7  1  0
  7  8  1  0
  8  9  2  0
  9 10  1  0
 10 11  2  0
 11 12  1  0
 12 13  2  0
  3 14  1  0
 14 15  1  0
 15 16  2  0
 15 17  1  0
 17 18  2  0
 18 19  1  0
 19 20  2  0
 20 21  1  0
 21 22  2  0
 22 23  1  0
 23 24  1  0
 20 25  1  0
 25 26  1  0
 19 27  1  0
  6  2  1  0
 13  8  1  0
 22 17  1  0
M  END
$$$$
