
     RDKit          3D

 27 29  0  0  0  0  0  0  0  0999 V2000
   -0.4106    1.8182    7.7972 C   0  0  0  0  0  0  0  0  0  0  0  0
   -0.2925    1.3348    9.2263 C   0  0  0  0  0  0  0  0  0  0  0  0
   -0.0320    2.5317   10.1101 C   0  0  0  0  0  0  0  0  0  0  0  0
    1.2574    2.2343   10.8435 C   0  0  0  0  0  0  0  0  0  0  0  0
    1.8233    1.0309   10.1277 C   0  0  0  0  0  0  0  0  0  0  0  0
    0.7515    0.3979    9.4386 N   0  0  0  0  0  0  0  0  0  0  0  0
    1.1423   -0.3794    8.3099 C   0  0  0  0  0  0  0  0  0  0  0  0
    1.7821   -1.6271    8.8017 C   0  0  0  0  0  0  0  0  0  0  0  0
    1.4388   -2.2312    9.9905 C   0  0  0  0  0  0  0  0  0  0  0  0
    2.0833   -3.3881   10.3702 C   0  0  0  0  0  0  0  0  0  0  0  0
    3.0730   -3.9795    9.6024 C   0  0  0  0  0  0  0  0  0  0  0  0
    3.3977   -3.3543    8.4165 C   0  0  0  0  0  0  0  0  0  0  0  0
    2.7631   -2.1978    8.0228 C   0  0  0  0  0  0  0  0  0  0  0  0
   -1.0843    2.7142   11.0868 N   0  0  0  0  0  0  0  0  0  0  0  0
   -0.7518    3.1448   12.3816 C   0  0  0  0  0  0  0  0  0  0  0  0
    0.4905    3.0505   12.7012 O   0  0  0  0  0  0  0  0  0  0  0  0
   -1.6365    3.6764   13.3866 C   0  0  0  0  0  0  0  0  0  0  0  0
   -2.8851    3.1068   13.5490 C   0  0  0  0  0  0  0  0  0  0  0  0
   -3.7888    3.5579   14.4887 C   0  0  0  0  0  0  0  0  0  0  0  0
   -3.4481    4.6164   15.3045 C   0  0  0  0  0  0  0  0  0  0  0  0
   -2.2202    5.1671   15.1358 C   0  0  0  0  0  0  0  0  0  0  0  0
   -1.2796    4.7252   14.1840 C   0  0  0  0  0  0  0  0  0  0  0  0
   -0.0526    5.3699   14.1054 O   0  0  0  0  0  0  0  0  0  0  0  0
    0.2073    6.4987   14.9076 C   0  0  0  0  0  0  0  0  0  0  0  0
   -4.3680    5.0948   16.2800 N   0  0  0  0  0  0  0  0  0  0  0  0
   -4.1878    6.3622   16.9543 C   0  0  0  0  0  0  0  0  0  0  0  0
   -5.3530    2.7876   14.6380 Cl  0  0  0  0  0  0  0  0  0  0  0  0
  1  2  1  0
  2  3  1  0
  3  4  1  0
  4  5  1  0
  5  6  1  0
  6  7  1  0
  7  8  1  0
  8  9  2  0
  9 10  1  0
 10 11  2  0
 11 12  1  0
 12 13  2  0
  3 14  1  0
 14 15  1  0
 15 16  2  0
 15 17  1  0
 17 18  2  0
 18 19  1  0
 19 20  2  0
 20 21  1  0
 21 22  2  0
 22 23  1  0
 23 24  1  0
 20 25  1  0
 25 26  1  0
 19 27  1  0
  6  2  1  0
 13  8  1  0
 22 17  1  0
M  END
$$$$
