
     RDKit          3D

 27 29  0  0  0  0  0  0  0  0999 V2000
    2.4156    1.9256   10.0414 C   0  0  0  0  0  0  0  0  0  0  0  0
    1.0324    1.3714   10.3052 C   0  0  0  0  0  0  0  0  0  0  0  0
    0.9488    0.9836   11.7627 C   0  0  0  0  0  0  0  0  0  0  0  0
    0.5672   -0.4803   11.7822 C   0  0  0  0  0  0  0  0  0  0  0  0
    0.7452   -0.9301   10.3515 C   0  0  0  0  0  0  0  0  0  0  0  0
    0.7058    0.2299    9.5287 N   0  0  0  0  0  0  0  0  0  0  0  0
    1.3804    0.1008    8.2801 C   0  0  0  0  0  0  0  0  0  0  0  0
    1.9556   -1.2669    8.1998 C   0  0  0  0  0  0  0  0  0  0  0  0
    3.0853   -1.6501    8.8878 C   0  0  0  0  0  0  0  0  0  0  0  0
    3.5502   -2.9402    8.7562 C   0  0  0  0  0  0  0  0  0  0  0  0
    2.9267   -3.8818    7.9540 C   0  0  0  0  0  0  0  0  0  0  0  0
    1.7975   -3.4722    7.2760 C   0  0  0  0  0  0  0  0  0  0  0  0
    1.3201   -2.1866    7.3968 C   0  0  0  0  0  0  0  0  0  0  0  0
   -0.0749    1.7342   12.4578 N   0  0  0  0  0  0  0  0  0  0  0  0
    0.1468    3.0901   12.7494 C   0  0  0  0  0  0  0  0  0  0  0  0
    1.1475    3.6347   12.1524 O   0  0  0  0  0  0  0  0  0  0  0  0
   -0.6128    3.9355   13.6345 C   0  0  0  0  0  0  0  0  0  0  0  0
   -1.7910    4.4956   13.1786 C   0  0  0  0  0  0  0  0  0  0  0  0
   -2.5747    5.3151   13.9644 C   0  0  0  0  0  0  0  0  0  0  0  0
   -2.1810    5.5953   15.2561 C   0  0  0  0  0  0  0  0  0  0  0  0
   -1.0230    5.0400   15.6923 C   0  0  0  0  0  0  0  0  0  0  0  0
   -0.2051    4.2004   14.9100 C   0  0  0  0  0  0  0  0  0  0  0  0
    0.9595    3.6908   15.4679 O   0  0  0  0  0  0  0  0  0  0  0  0
    1.3406    4.0604   16.7729 C   0  0  0  0  0  0  0  0  0  0  0  0
   -2.9774    6.4386   16.0814 N   0  0  0  0  0  0  0  0  0  0  0  0
   -2.6286    6.7253   17.4561 C   0  0  0  0  0  0  0  0  0  0  0  0
   -4.0553    5.9895   13.3199 Cl  0  0  0  0  0  0  0  0  0  0  0  0
  1  2  1  0
  2  3  1  0
  3  4  1  0
  4  5  1  0
  5  6  1  0
  6  7  1  0
  7  8  1  0
  8  9  2  0
  9 10  1  0
 10 11  2  0
 11 12  1  0
 12 13  2  0
  3 14  1  0
 14 15  1  0
 15 16  2  0
 15 17  1  0
 17 18  2  0
 18 19  1  0
 19 20  2  0
 20 21  1  0
 21 22  2  0
 22 23  1  0
 23 24  1  0
 20 25  1  0
 25 26  1  0
 19 27  1  0
  6  2  1  0
 13  8  1  0
 22 17  1  0
M  END
$$$$
