
     RDKit          3D

 27 29  0  0  0  0  0  0  0  0999 V2000
   -0.8938    1.1968    8.9233 C   0  0  0  0  0  0  0  0  0  0  0  0
   -0.1431    0.7782   10.1687 C   0  0  0  0  0  0  0  0  0  0  0  0
    0.6226    1.9742   10.6834 C   0  0  0  0  0  0  0  0  0  0  0  0
    2.0720    1.5449   10.7447 C   0  0  0  0  0  0  0  0  0  0  0  0
    2.1060    0.2401    9.9851 C   0  0  0  0  0  0  0  0  0  0  0  0
    0.7811   -0.2783    9.9628 N   0  0  0  0  0  0  0  0  0  0  0  0
    0.5019   -1.1598    8.8785 C   0  0  0  0  0  0  0  0  0  0  0  0
    1.7015   -2.0045    8.6432 C   0  0  0  0  0  0  0  0  0  0  0  0
    2.1733   -2.9148    9.5625 C   0  0  0  0  0  0  0  0  0  0  0  0
    3.2934   -3.6584    9.2618 C   0  0  0  0  0  0  0  0  0  0  0  0
    3.9757   -3.5317    8.0630 C   0  0  0  0  0  0  0  0  0  0  0  0
    3.4823   -2.6131    7.1600 C   0  0  0  0  0  0  0  0  0  0  0  0
    2.3642   -1.8623    7.4453 C   0  0  0  0  0  0  0  0  0  0  0  0
    0.1978    2.3483   12.0153 N   0  0  0  0  0  0  0  0  0  0  0  0
    0.6915    3.5328   12.5861 C   0  0  0  0  0  0  0  0  0  0  0  0
    1.6373    4.1150   11.9371 O   0  0  0  0  0  0  0  0  0  0  0  0
    0.2635    4.1666   13.8068 C   0  0  0  0  0  0  0  0  0  0  0  0
    1.2185    4.6444   14.6841 C   0  0  0  0  0  0  0  0  0  0  0  0
    0.8896    5.2634   15.8723 C   0  0  0  0  0  0  0  0  0  0  0  0
   -0.4381    5.4190   16.2116 C   0  0  0  0  0  0  0  0  0  0  0  0
   -1.3660    4.9461   15.3428 C   0  0  0  0  0  0  0  0  0  0  0  0
   -1.0564    4.3105   14.1238 C   0  0  0  0  0  0  0  0  0  0  0  0
   -2.0952    3.8680   13.3162 O   0  0  0  0  0  0  0  0  0  0  0  0
   -3.4332    4.0826   13.7019 C   0  0  0  0  0  0  0  0  0  0  0  0
   -0.7959    6.0556   17.4336 N   0  0  0  0  0  0  0  0  0  0  0  0
   -2.1658    6.1283   17.8935 C   0  0  0  0  0  0  0  0  0  0  0  0
    2.1530    5.8439   16.9349 Cl  0  0  0  0  0  0  0  0  0  0  0  0
  1  2  1  0
  2  3  1  0
  3  4  1  0
  4  5  1  0
  5  6  1  0
  6  7  1  0
  7  8  1  0
  8  9  2  0
  9 10  1  0
 10 11  2  0
 11 12  1  0
 12 13  2  0
  3 14  1  0
 14 15  1  0
 15 16  2  0
 15 17  1  0
 17 18  2  0
 18 19  1  0
 19 20  2  0
 20 21  1  0
 21 22  2  0
 22 23  1  0
 23 24  1  0
 20 25  1  0
 25 26  1  0
 19 27  1  0
  6  2  1  0
 13  8  1  0
 22 17  1  0
M  END
$$$$
