
     RDKit          3D

 27 29  0  0  0  0  0  0  0  0999 V2000
    0.9015    2.4420    8.5042 C   0  0  0  0  0  0  0  0  0  0  0  0
    0.2334    1.5753    9.5494 C   0  0  0  0  0  0  0  0  0  0  0  0
    0.6354    2.0850   10.9132 C   0  0  0  0  0  0  0  0  0  0  0  0
    1.2655    0.9094   11.6273 C   0  0  0  0  0  0  0  0  0  0  0  0
    1.4653   -0.1215   10.5419 C   0  0  0  0  0  0  0  0  0  0  0  0
    0.5816    0.2020    9.4747 N   0  0  0  0  0  0  0  0  0  0  0  0
    0.9871   -0.2785    8.1959 C   0  0  0  0  0  0  0  0  0  0  0  0
    1.8736   -1.4537    8.3986 C   0  0  0  0  0  0  0  0  0  0  0  0
    1.7818   -2.6044    7.6479 C   0  0  0  0  0  0  0  0  0  0  0  0
    2.6454   -3.6470    7.9029 C   0  0  0  0  0  0  0  0  0  0  0  0
    3.6140   -3.5912    8.8916 C   0  0  0  0  0  0  0  0  0  0  0  0
    3.6847   -2.4275    9.6288 C   0  0  0  0  0  0  0  0  0  0  0  0
    2.8290   -1.3766    9.3864 C   0  0  0  0  0  0  0  0  0  0  0  0
   -0.5111    2.5262   11.6784 N   0  0  0  0  0  0  0  0  0  0  0  0
   -0.3086    3.1530   12.9188 C   0  0  0  0  0  0  0  0  0  0  0  0
    0.8533    2.9892   13.4457 O   0  0  0  0  0  0  0  0  0  0  0  0
   -1.2464    3.9532   13.6641 C   0  0  0  0  0  0  0  0  0  0  0  0
   -2.5871    3.8953   13.3338 C   0  0  0  0  0  0  0  0  0  0  0  0
   -3.5466    4.6299   13.9995 C   0  0  0  0  0  0  0  0  0  0  0  0
   -3.1694    5.4578   15.0359 C   0  0  0  0  0  0  0  0  0  0  0  0
   -1.8510    5.5062   15.3507 C   0  0  0  0  0  0  0  0  0  0  0  0
   -0.8520    4.7665   14.6869 C   0  0  0  0  0  0  0  0  0  0  0  0
    0.4665    4.8998   15.1004 O   0  0  0  0  0  0  0  0  0  0  0  0
    0.7965    5.7940   16.1380 C   0  0  0  0  0  0  0  0  0  0  0  0
   -4.1460    6.2229   15.7341 N   0  0  0  0  0  0  0  0  0  0  0  0
   -3.7925    7.1434   16.7930 C   0  0  0  0  0  0  0  0  0  0  0  0
   -5.2268    4.5063   13.5263 Cl  0  0  0  0  0  0  0  0  0  0  0  0
  1  2  1  0
  2  3  1  0
  3  4  1  0
  4  5  1  0
  5  6  1  0
  6  7  1  0
  7  8  1  0
  8  9  2  0
  9 10  1  0
 10 11  2  0
 11 12  1  0
 12 13  2  0
  3 14  1  0
 14 15  1  0
 15 16  2  0
 15 17  1  0
 17 18  2  0
 18 19  1  0
 19 20  2  0
 20 21  1  0
 21 22  2  0
 22 23  1  0
 23 24  1  0
 20 25  1  0
 25 26  1  0
 19 27  1  0
  6  2  1  0
 13  8  1  0
 22 17  1  0
M  END
$$$$
