
     RDKit          3D

 27 29  0  0  0  0  0  0  0  0999 V2000
    1.5221    0.5017   11.9877 C   0  0  0  0  0  0  0  0  0  0  0  0
    0.9626    1.0635   10.6987 C   0  0  0  0  0  0  0  0  0  0  0  0
   -0.4983    0.6891   10.6147 C   0  0  0  0  0  0  0  0  0  0  0  0
   -0.6600   -0.0653    9.3133 C   0  0  0  0  0  0  0  0  0  0  0  0
    0.7554   -0.3454    8.8674 C   0  0  0  0  0  0  0  0  0  0  0  0
    1.6057    0.5843    9.5284 N   0  0  0  0  0  0  0  0  0  0  0  0
    2.9566    0.1566    9.6797 C   0  0  0  0  0  0  0  0  0  0  0  0
    3.0623   -1.2398    9.1831 C   0  0  0  0  0  0  0  0  0  0  0  0
    3.1825   -2.3286   10.0176 C   0  0  0  0  0  0  0  0  0  0  0  0
    3.2741   -3.5902    9.4716 C   0  0  0  0  0  0  0  0  0  0  0  0
    3.2507   -3.8175    8.1054 C   0  0  0  0  0  0  0  0  0  0  0  0
    3.1296   -2.7100    7.2922 C   0  0  0  0  0  0  0  0  0  0  0  0
    3.0370   -1.4428    7.8219 C   0  0  0  0  0  0  0  0  0  0  0  0
   -1.3488    1.8594   10.5759 N   0  0  0  0  0  0  0  0  0  0  0  0
   -1.2428    2.8192   11.5956 C   0  0  0  0  0  0  0  0  0  0  0  0
   -0.2436    2.6801   12.3937 O   0  0  0  0  0  0  0  0  0  0  0  0
   -2.1186    3.9345   11.8491 C   0  0  0  0  0  0  0  0  0  0  0  0
   -2.7279    4.5641   10.7803 C   0  0  0  0  0  0  0  0  0  0  0  0
   -3.5796    5.6375   10.9400 C   0  0  0  0  0  0  0  0  0  0  0  0
   -3.8430    6.1120   12.2079 C   0  0  0  0  0  0  0  0  0  0  0  0
   -3.2393    5.4861   13.2487 C   0  0  0  0  0  0  0  0  0  0  0  0
   -2.3660    4.3886   13.1124 C   0  0  0  0  0  0  0  0  0  0  0  0
   -1.8077    3.8308   14.2544 O   0  0  0  0  0  0  0  0  0  0  0  0
   -2.0968    4.3736   15.5220 C   0  0  0  0  0  0  0  0  0  0  0  0
   -4.7195    7.2186   12.3916 N   0  0  0  0  0  0  0  0  0  0  0  0
   -5.0317    7.7465   13.7021 C   0  0  0  0  0  0  0  0  0  0  0  0
   -4.3158    6.3856    9.5398 Cl  0  0  0  0  0  0  0  0  0  0  0  0
  1  2  1  0
  2  3  1  0
  3  4  1  0
  4  5  1  0
  5  6  1  0
  6  7  1  0
  7  8  1  0
  8  9  2  0
  9 10  1  0
 10 11  2  0
 11 12  1  0
 12 13  2  0
  3 14  1  0
 14 15  1  0
 15 16  2  0
 15 17  1  0
 17 18  2  0
 18 19  1  0
 19 20  2  0
 20 21  1  0
 21 22  2  0
 22 23  1  0
 23 24  1  0
 20 25  1  0
 25 26  1  0
 19 27  1  0
  6  2  1  0
 13  8  1  0
 22 17  1  0
M  END
$$$$
