
     RDKit          3D

 27 29  0  0  0  0  0  0  0  0999 V2000
    0.9429    3.9237   13.2851 C   0  0  0  0  0  0  0  0  0  0  0  0
    0.0096    2.7425   13.1310 C   0  0  0  0  0  0  0  0  0  0  0  0
   -0.1027    2.4177   11.6601 C   0  0  0  0  0  0  0  0  0  0  0  0
   -1.5776    2.4880   11.3303 C   0  0  0  0  0  0  0  0  0  0  0  0
   -2.1994    3.1380   12.5434 C   0  0  0  0  0  0  0  0  0  0  0  0
   -1.2989    2.9664   13.6315 N   0  0  0  0  0  0  0  0  0  0  0  0
   -1.4216    3.9365   14.6681 C   0  0  0  0  0  0  0  0  0  0  0  0
   -2.5070    4.8810   14.2972 C   0  0  0  0  0  0  0  0  0  0  0  0
   -2.3354    5.9091   13.3974 C   0  0  0  0  0  0  0  0  0  0  0  0
   -3.3973    6.7386   13.1103 C   0  0  0  0  0  0  0  0  0  0  0  0
   -4.6450    6.5850   13.6918 C   0  0  0  0  0  0  0  0  0  0  0  0
   -4.7899    5.5477   14.5894 C   0  0  0  0  0  0  0  0  0  0  0  0
   -3.7388    4.7099   14.8870 C   0  0  0  0  0  0  0  0  0  0  0  0
    0.3694    1.0807   11.3702 N   0  0  0  0  0  0  0  0  0  0  0  0
    0.4990    0.6735   10.0323 C   0  0  0  0  0  0  0  0  0  0  0  0
   -0.0947    1.4119    9.1624 O   0  0  0  0  0  0  0  0  0  0  0  0
    1.2158   -0.4687    9.5255 C   0  0  0  0  0  0  0  0  0  0  0  0
    1.4120   -0.5855    8.1625 C   0  0  0  0  0  0  0  0  0  0  0  0
    2.0880   -1.6483    7.5997 C   0  0  0  0  0  0  0  0  0  0  0  0
    2.5931   -2.6395    8.4147 C   0  0  0  0  0  0  0  0  0  0  0  0
    2.3943   -2.5139    9.7504 C   0  0  0  0  0  0  0  0  0  0  0  0
    1.7077   -1.4391   10.3498 C   0  0  0  0  0  0  0  0  0  0  0  0
    1.5675   -1.4205   11.7308 O   0  0  0  0  0  0  0  0  0  0  0  0
    2.0636   -2.4861   12.5077 C   0  0  0  0  0  0  0  0  0  0  0  0
    3.2937   -3.7433    7.8512 N   0  0  0  0  0  0  0  0  0  0  0  0
    3.8389   -4.8080    8.6653 C   0  0  0  0  0  0  0  0  0  0  0  0
    2.2987   -1.7303    5.8644 Cl  0  0  0  0  0  0  0  0  0  0  0  0
  1  2  1  0
  2  3  1  0
  3  4  1  0
  4  5  1  0
  5  6  1  0
  6  7  1  0
  7  8  1  0
  8  9  2  0
  9 10  1  0
 10 11  2  0
 11 12  1  0
 12 13  2  0
  3 14  1  0
 14 15  1  0
 15 16  2  0
 15 17  1  0
 17 18  2  0
 18 19  1  0
 19 20  2  0
 20 21  1  0
 21 22  2  0
 22 23  1  0
 23 24  1  0
 20 25  1  0
 25 26  1  0
 19 27  1  0
  6  2  1  0
 13  8  1  0
 22 17  1  0
M  END
$$$$
