
     RDKit          3D

 27 29  0  0  0  0  0  0  0  0999 V2000
   -1.5740    1.2182    8.5368 C   0  0  0  0  0  0  0  0  0  0  0  0
   -0.6670    1.3251    9.7434 C   0  0  0  0  0  0  0  0  0  0  0  0
   -0.0062    2.6831    9.7191 C   0  0  0  0  0  0  0  0  0  0  0  0
    1.4837    2.4209    9.7365 C   0  0  0  0  0  0  0  0  0  0  0  0
    1.6039    0.9398    9.4671 C   0  0  0  0  0  0  0  0  0  0  0  0
    0.3544    0.3416    9.7918 N   0  0  0  0  0  0  0  0  0  0  0  0
    0.0843   -0.8837    9.1163 C   0  0  0  0  0  0  0  0  0  0  0  0
    1.3630   -1.6255    8.9664 C   0  0  0  0  0  0  0  0  0  0  0  0
    1.9550   -1.8668    7.7468 C   0  0  0  0  0  0  0  0  0  0  0  0
    3.1428   -2.5631    7.6993 C   0  0  0  0  0  0  0  0  0  0  0  0
    3.7775   -3.0378    8.8353 C   0  0  0  0  0  0  0  0  0  0  0  0
    3.1636   -2.7826   10.0439 C   0  0  0  0  0  0  0  0  0  0  0  0
    1.9766   -2.0883   10.1084 C   0  0  0  0  0  0  0  0  0  0  0  0
   -0.3484    3.4653   10.8878 N   0  0  0  0  0  0  0  0  0  0  0  0
   -0.0785    2.9460   12.1645 C   0  0  0  0  0  0  0  0  0  0  0  0
    0.3124    1.7211   12.1994 O   0  0  0  0  0  0  0  0  0  0  0  0
   -0.1883    3.6231   13.4312 C   0  0  0  0  0  0  0  0  0  0  0  0
    0.9255    4.2537   13.9525 C   0  0  0  0  0  0  0  0  0  0  0  0
    0.9014    4.9233   15.1584 C   0  0  0  0  0  0  0  0  0  0  0  0
   -0.2709    4.9742   15.8830 C   0  0  0  0  0  0  0  0  0  0  0  0
   -1.3571    4.3517   15.3614 C   0  0  0  0  0  0  0  0  0  0  0  0
   -1.3586    3.6616   14.1328 C   0  0  0  0  0  0  0  0  0  0  0  0
   -2.5348    3.0628   13.7022 O   0  0  0  0  0  0  0  0  0  0  0  0
   -3.7159    3.1965   14.4586 C   0  0  0  0  0  0  0  0  0  0  0  0
   -0.3141    5.6610   17.1293 N   0  0  0  0  0  0  0  0  0  0  0  0
   -1.5376    5.8069   17.8878 C   0  0  0  0  0  0  0  0  0  0  0  0
    2.3512    5.6994   15.7568 Cl  0  0  0  0  0  0  0  0  0  0  0  0
  1  2  1  0
  2  3  1  0
  3  4  1  0
  4  5  1  0
  5  6  1  0
  6  7  1  0
  7  8  1  0
  8  9  2  0
  9 10  1  0
 10 11  2  0
 11 12  1  0
 12 13  2  0
  3 14  1  0
 14 15  1  0
 15 16  2  0
 15 17  1  0
 17 18  2  0
 18 19  1  0
 19 20  2  0
 20 21  1  0
 21 22  2  0
 22 23  1  0
 23 24  1  0
 20 25  1  0
 25 26  1  0
 19 27  1  0
  6  2  1  0
 13  8  1  0
 22 17  1  0
M  END
$$$$
