
     RDKit          3D

 27 29  0  0  0  0  0  0  0  0999 V2000
    1.0853    2.2883    8.4073 C   0  0  0  0  0  0  0  0  0  0  0  0
    0.4305    1.4663    9.4962 C   0  0  0  0  0  0  0  0  0  0  0  0
    0.9507    1.9485   10.8297 C   0  0  0  0  0  0  0  0  0  0  0  0
    1.5478    0.7344   11.5067 C   0  0  0  0  0  0  0  0  0  0  0  0
    1.6109   -0.3070   10.4148 C   0  0  0  0  0  0  0  0  0  0  0  0
    0.6838    0.0734    9.4047 N   0  0  0  0  0  0  0  0  0  0  0  0
    0.9751   -0.4320    8.1045 C   0  0  0  0  0  0  0  0  0  0  0  0
    2.0877   -1.4098    8.2224 C   0  0  0  0  0  0  0  0  0  0  0  0
    1.8908   -2.7717    8.2740 C   0  0  0  0  0  0  0  0  0  0  0  0
    2.9807   -3.6073    8.3830 C   0  0  0  0  0  0  0  0  0  0  0  0
    4.2817   -3.1356    8.4438 C   0  0  0  0  0  0  0  0  0  0  0  0
    4.4510   -1.7677    8.3902 C   0  0  0  0  0  0  0  0  0  0  0  0
    3.3724   -0.9192    8.2814 C   0  0  0  0  0  0  0  0  0  0  0  0
   -0.1138    2.4627   11.6646 N   0  0  0  0  0  0  0  0  0  0  0  0
    0.2091    3.0993   12.8742 C   0  0  0  0  0  0  0  0  0  0  0  0
    1.3734    2.8348   13.3526 O   0  0  0  0  0  0  0  0  0  0  0  0
   -0.6085    4.0085   13.6359 C   0  0  0  0  0  0  0  0  0  0  0  0
   -0.0020    5.0545   14.3051 C   0  0  0  0  0  0  0  0  0  0  0  0
   -0.7149    5.9673   15.0547 C   0  0  0  0  0  0  0  0  0  0  0  0
   -2.0853    5.8447   15.1495 C   0  0  0  0  0  0  0  0  0  0  0  0
   -2.6691    4.8143   14.4885 C   0  0  0  0  0  0  0  0  0  0  0  0
   -1.9640    3.8692   13.7168 C   0  0  0  0  0  0  0  0  0  0  0  0
   -2.6733    2.8566   13.0853 O   0  0  0  0  0  0  0  0  0  0  0  0
   -4.0221    2.6225   13.4185 C   0  0  0  0  0  0  0  0  0  0  0  0
   -2.8370    6.7776   15.9184 N   0  0  0  0  0  0  0  0  0  0  0  0
   -4.2607    6.6321   16.1316 C   0  0  0  0  0  0  0  0  0  0  0  0
    0.1206    7.2674   15.8755 Cl  0  0  0  0  0  0  0  0  0  0  0  0
  1  2  1  0
  2  3  1  0
  3  4  1  0
  4  5  1  0
  5  6  1  0
  6  7  1  0
  7  8  1  0
  8  9  2  0
  9 10  1  0
 10 11  2  0
 11 12  1  0
 12 13  2  0
  3 14  1  0
 14 15  1  0
 15 16  2  0
 15 17  1  0
 17 18  2  0
 18 19  1  0
 19 20  2  0
 20 21  1  0
 21 22  2  0
 22 23  1  0
 23 24  1  0
 20 25  1  0
 25 26  1  0
 19 27  1  0
  6  2  1  0
 13  8  1  0
 22 17  1  0
M  END
$$$$
