
     RDKit          3D

 27 29  0  0  0  0  0  0  0  0999 V2000
    0.7440    3.7311   10.9427 C   0  0  0  0  0  0  0  0  0  0  0  0
   -0.2996    2.6711   10.6645 C   0  0  0  0  0  0  0  0  0  0  0  0
    0.0985    1.9344    9.4075 C   0  0  0  0  0  0  0  0  0  0  0  0
   -1.0724    2.0680    8.4588 C   0  0  0  0  0  0  0  0  0  0  0  0
   -1.9504    3.1180    9.0971 C   0  0  0  0  0  0  0  0  0  0  0  0
   -1.6102    3.1809   10.4772 N   0  0  0  0  0  0  0  0  0  0  0  0
   -1.9008    4.4248   11.1088 C   0  0  0  0  0  0  0  0  0  0  0  0
   -2.1750    4.1656   12.5460 C   0  0  0  0  0  0  0  0  0  0  0  0
   -1.6177    4.9063   13.5643 C   0  0  0  0  0  0  0  0  0  0  0  0
   -1.9275    4.5975   14.8707 C   0  0  0  0  0  0  0  0  0  0  0  0
   -2.7840    3.5638   15.2121 C   0  0  0  0  0  0  0  0  0  0  0  0
   -3.3283    2.8377   14.1733 C   0  0  0  0  0  0  0  0  0  0  0  0
   -3.0290    3.1336   12.8626 C   0  0  0  0  0  0  0  0  0  0  0  0
    0.3256    0.5278    9.6613 N   0  0  0  0  0  0  0  0  0  0  0  0
    1.4573   -0.0952    9.1103 C   0  0  0  0  0  0  0  0  0  0  0  0
    2.1644    0.6292    8.3167 O   0  0  0  0  0  0  0  0  0  0  0  0
    1.9144   -1.4435    9.3301 C   0  0  0  0  0  0  0  0  0  0  0  0
    1.8050   -1.9900   10.5948 C   0  0  0  0  0  0  0  0  0  0  0  0
    2.2190   -3.2734   10.8857 C   0  0  0  0  0  0  0  0  0  0  0  0
    2.7648   -4.0531    9.8876 C   0  0  0  0  0  0  0  0  0  0  0  0
    2.8670   -3.5059    8.6508 C   0  0  0  0  0  0  0  0  0  0  0  0
    2.4518   -2.1986    8.3280 C   0  0  0  0  0  0  0  0  0  0  0  0
    2.6079   -1.7489    7.0238 O   0  0  0  0  0  0  0  0  0  0  0  0
    3.2796   -2.5454    6.0755 C   0  0  0  0  0  0  0  0  0  0  0  0
    3.1971   -5.3798   10.1697 N   0  0  0  0  0  0  0  0  0  0  0  0
    3.8067   -6.2229    9.1641 C   0  0  0  0  0  0  0  0  0  0  0  0
    2.0496   -3.8996   12.5110 Cl  0  0  0  0  0  0  0  0  0  0  0  0
  1  2  1  0
  2  3  1  0
  3  4  1  0
  4  5  1  0
  5  6  1  0
  6  7  1  0
  7  8  1  0
  8  9  2  0
  9 10  1  0
 10 11  2  0
 11 12  1  0
 12 13  2  0
  3 14  1  0
 14 15  1  0
 15 16  2  0
 15 17  1  0
 17 18  2  0
 18 19  1  0
 19 20  2  0
 20 21  1  0
 21 22  2  0
 22 23  1  0
 23 24  1  0
 20 25  1  0
 25 26  1  0
 19 27  1  0
  6  2  1  0
 13  8  1  0
 22 17  1  0
M  END
$$$$
