
     RDKit          3D

 27 29  0  0  0  0  0  0  0  0999 V2000
    1.0879    3.9163   11.5392 C   0  0  0  0  0  0  0  0  0  0  0  0
    0.6650    2.4815   11.7685 C   0  0  0  0  0  0  0  0  0  0  0  0
   -0.3743    2.1239   10.7325 C   0  0  0  0  0  0  0  0  0  0  0  0
   -1.5929    1.6696   11.5057 C   0  0  0  0  0  0  0  0  0  0  0  0
   -1.3000    2.0721   12.9315 C   0  0  0  0  0  0  0  0  0  0  0  0
    0.1082    2.2374   13.0503 N   0  0  0  0  0  0  0  0  0  0  0  0
    0.5215    3.1128   14.0961 C   0  0  0  0  0  0  0  0  0  0  0  0
   -0.3985    4.2794   14.1189 C   0  0  0  0  0  0  0  0  0  0  0  0
    0.0403    5.5830   14.1853 C   0  0  0  0  0  0  0  0  0  0  0  0
   -0.8829    6.6055   14.2013 C   0  0  0  0  0  0  0  0  0  0  0  0
   -2.2489    6.3808   14.1531 C   0  0  0  0  0  0  0  0  0  0  0  0
   -2.6615    5.0663   14.0871 C   0  0  0  0  0  0  0  0  0  0  0  0
   -1.7518    4.0332   14.0703 C   0  0  0  0  0  0  0  0  0  0  0  0
    0.0657    1.0344    9.8875 N   0  0  0  0  0  0  0  0  0  0  0  0
    1.2308    0.3283   10.2289 C   0  0  0  0  0  0  0  0  0  0  0  0
    1.8861    0.7838   11.2377 O   0  0  0  0  0  0  0  0  0  0  0  0
    1.7729   -0.8399    9.5834 C   0  0  0  0  0  0  0  0  0  0  0  0
    2.3053   -1.8494   10.3627 C   0  0  0  0  0  0  0  0  0  0  0  0
    2.8425   -2.9987    9.8208 C   0  0  0  0  0  0  0  0  0  0  0  0
    2.8562   -3.1612    8.4514 C   0  0  0  0  0  0  0  0  0  0  0  0
    2.3310   -2.1638    7.6971 C   0  0  0  0  0  0  0  0  0  0  0  0
    1.7767   -0.9810    8.2257 C   0  0  0  0  0  0  0  0  0  0  0  0
    1.2685   -0.0301    7.3511 O   0  0  0  0  0  0  0  0  0  0  0  0
    1.3645   -0.2250    5.9591 C   0  0  0  0  0  0  0  0  0  0  0  0
    3.4063   -4.3409    7.8748 N   0  0  0  0  0  0  0  0  0  0  0  0
    3.5050   -4.5263    6.4432 C   0  0  0  0  0  0  0  0  0  0  0  0
    3.4995   -4.2359   10.8697 Cl  0  0  0  0  0  0  0  0  0  0  0  0
  1  2  1  0
  2  3  1  0
  3  4  1  0
  4  5  1  0
  5  6  1  0
  6  7  1  0
  7  8  1  0
  8  9  2  0
  9 10  1  0
 10 11  2  0
 11 12  1  0
 12 13  2  0
  3 14  1  0
 14 15  1  0
 15 16  2  0
 15 17  1  0
 17 18  2  0
 18 19  1  0
 19 20  2  0
 20 21  1  0
 21 22  2  0
 22 23  1  0
 23 24  1  0
 20 25  1  0
 25 26  1  0
 19 27  1  0
  6  2  1  0
 13  8  1  0
 22 17  1  0
M  END
$$$$
