
     RDKit          3D

 27 29  0  0  0  0  0  0  0  0999 V2000
   -2.3266    2.2908   11.6357 C   0  0  0  0  0  0  0  0  0  0  0  0
   -0.8597    2.2858   11.2639 C   0  0  0  0  0  0  0  0  0  0  0  0
   -0.2546    0.9882   11.7451 C   0  0  0  0  0  0  0  0  0  0  0  0
    0.8929    1.3756   12.6518 C   0  0  0  0  0  0  0  0  0  0  0  0
    0.7013    2.8557   12.8826 C   0  0  0  0  0  0  0  0  0  0  0  0
   -0.1136    3.3528   11.8275 N   0  0  0  0  0  0  0  0  0  0  0  0
   -0.8420    4.5368   12.1413 C   0  0  0  0  0  0  0  0  0  0  0  0
   -0.4335    4.9907   13.4959 C   0  0  0  0  0  0  0  0  0  0  0  0
   -1.2770    4.9672   14.5840 C   0  0  0  0  0  0  0  0  0  0  0  0
   -0.8151    5.4066   15.8053 C   0  0  0  0  0  0  0  0  0  0  0  0
    0.4743    5.8768   15.9923 C   0  0  0  0  0  0  0  0  0  0  0  0
    1.2986    5.8897   14.8864 C   0  0  0  0  0  0  0  0  0  0  0  0
    0.8523    5.4541   13.6591 C   0  0  0  0  0  0  0  0  0  0  0  0
    0.2714    0.2043   10.6481 N   0  0  0  0  0  0  0  0  0  0  0  0
    1.4576   -0.5247   10.8322 C   0  0  0  0  0  0  0  0  0  0  0  0
    2.1098   -0.2696   11.9111 O   0  0  0  0  0  0  0  0  0  0  0  0
    2.0243   -1.5190    9.9573 C   0  0  0  0  0  0  0  0  0  0  0  0
    2.0416   -1.2818    8.5959 C   0  0  0  0  0  0  0  0  0  0  0  0
    2.5666   -2.1833    7.6933 C   0  0  0  0  0  0  0  0  0  0  0  0
    3.0980   -3.3707    8.1512 C   0  0  0  0  0  0  0  0  0  0  0  0
    3.0754   -3.5923    9.4890 C   0  0  0  0  0  0  0  0  0  0  0  0
    2.5454   -2.6883   10.4312 C   0  0  0  0  0  0  0  0  0  0  0  0
    2.5788   -3.0271   11.7771 O   0  0  0  0  0  0  0  0  0  0  0  0
    3.0260   -4.3023   12.1757 C   0  0  0  0  0  0  0  0  0  0  0  0
    3.6444   -4.3126    7.2341 N   0  0  0  0  0  0  0  0  0  0  0  0
    4.1794   -5.5865    7.6634 C   0  0  0  0  0  0  0  0  0  0  0  0
    2.5546   -1.8155    5.9824 Cl  0  0  0  0  0  0  0  0  0  0  0  0
  1  2  1  0
  2  3  1  0
  3  4  1  0
  4  5  1  0
  5  6  1  0
  6  7  1  0
  7  8  1  0
  8  9  2  0
  9 10  1  0
 10 11  2  0
 11 12  1  0
 12 13  2  0
  3 14  1  0
 14 15  1  0
 15 16  2  0
 15 17  1  0
 17 18  2  0
 18 19  1  0
 19 20  2  0
 20 21  1  0
 21 22  2  0
 22 23  1  0
 23 24  1  0
 20 25  1  0
 25 26  1  0
 19 27  1  0
  6  2  1  0
 13  8  1  0
 22 17  1  0
M  END
$$$$
