
     RDKit          3D

 27 29  0  0  0  0  0  0  0  0999 V2000
    0.0129    1.5106    8.9119 C   0  0  0  0  0  0  0  0  0  0  0  0
    0.1828    0.7551   10.2120 C   0  0  0  0  0  0  0  0  0  0  0  0
    1.2772    1.4253   11.0086 C   0  0  0  0  0  0  0  0  0  0  0  0
    2.3075    0.3523   11.2843 C   0  0  0  0  0  0  0  0  0  0  0  0
    1.9034   -0.7913   10.3845 C   0  0  0  0  0  0  0  0  0  0  0  0
    0.5326   -0.6102   10.0494 N   0  0  0  0  0  0  0  0  0  0  0  0
    0.1290   -1.2250    8.8288 C   0  0  0  0  0  0  0  0  0  0  0  0
    1.3004   -1.9368    8.2553 C   0  0  0  0  0  0  0  0  0  0  0  0
    1.8019   -1.6720    7.0005 C   0  0  0  0  0  0  0  0  0  0  0  0
    2.8934   -2.3798    6.5469 C   0  0  0  0  0  0  0  0  0  0  0  0
    3.5178   -3.3576    7.3037 C   0  0  0  0  0  0  0  0  0  0  0  0
    2.9956   -3.6032    8.5565 C   0  0  0  0  0  0  0  0  0  0  0  0
    1.9055   -2.9047    9.0244 C   0  0  0  0  0  0  0  0  0  0  0  0
    0.7866    1.9269   12.2744 N   0  0  0  0  0  0  0  0  0  0  0  0
    0.5196    3.2989   12.4122 C   0  0  0  0  0  0  0  0  0  0  0  0
    0.5391    3.9849   11.3243 O   0  0  0  0  0  0  0  0  0  0  0  0
    0.2283    4.0215   13.6238 C   0  0  0  0  0  0  0  0  0  0  0  0
   -0.4760    5.2078   13.5433 C   0  0  0  0  0  0  0  0  0  0  0  0
   -0.7945    5.9575   14.6568 C   0  0  0  0  0  0  0  0  0  0  0  0
   -0.4022    5.5198   15.9044 C   0  0  0  0  0  0  0  0  0  0  0  0
    0.2883    4.3544   15.9707 C   0  0  0  0  0  0  0  0  0  0  0  0
    0.6259    3.5706   14.8493 C   0  0  0  0  0  0  0  0  0  0  0  0
    1.3368    2.3942   15.0437 O   0  0  0  0  0  0  0  0  0  0  0  0
    1.8210    2.0625   16.3246 C   0  0  0  0  0  0  0  0  0  0  0  0
   -0.7224    6.2804   17.0644 N   0  0  0  0  0  0  0  0  0  0  0  0
   -0.3196    5.8695   18.3920 C   0  0  0  0  0  0  0  0  0  0  0  0
   -1.6894    7.4508   14.4789 Cl  0  0  0  0  0  0  0  0  0  0  0  0
  1  2  1  0
  2  3  1  0
  3  4  1  0
  4  5  1  0
  5  6  1  0
  6  7  1  0
  7  8  1  0
  8  9  2  0
  9 10  1  0
 10 11  2  0
 11 12  1  0
 12 13  2  0
  3 14  1  0
 14 15  1  0
 15 16  2  0
 15 17  1  0
 17 18  2  0
 18 19  1  0
 19 20  2  0
 20 21  1  0
 21 22  2  0
 22 23  1  0
 23 24  1  0
 20 25  1  0
 25 26  1  0
 19 27  1  0
  6  2  1  0
 13  8  1  0
 22 17  1  0
M  END
$$$$
