
     RDKit          3D

 27 29  0  0  0  0  0  0  0  0999 V2000
    2.8947    0.5382   10.6021 C   0  0  0  0  0  0  0  0  0  0  0  0
    1.5293    1.1466   10.3666 C   0  0  0  0  0  0  0  0  0  0  0  0
    0.5804    0.5942   11.4039 C   0  0  0  0  0  0  0  0  0  0  0  0
   -0.5546   -0.0423   10.6322 C   0  0  0  0  0  0  0  0  0  0  0  0
   -0.0555   -0.0890    9.2076 C   0  0  0  0  0  0  0  0  0  0  0  0
    0.9846    0.8741    9.0853 N   0  0  0  0  0  0  0  0  0  0  0  0
    1.9209    0.6141    8.0428 C   0  0  0  0  0  0  0  0  0  0  0  0
    1.7744   -0.8049    7.6273 C   0  0  0  0  0  0  0  0  0  0  0  0
    2.5377   -1.8250    8.1498 C   0  0  0  0  0  0  0  0  0  0  0  0
    2.3349   -3.1139    7.7076 C   0  0  0  0  0  0  0  0  0  0  0  0
    1.3873   -3.4358    6.7499 C   0  0  0  0  0  0  0  0  0  0  0  0
    0.6364   -2.3956    6.2430 C   0  0  0  0  0  0  0  0  0  0  0  0
    0.8267   -1.1022    6.6744 C   0  0  0  0  0  0  0  0  0  0  0  0
    0.0358    1.6411   12.2418 N   0  0  0  0  0  0  0  0  0  0  0  0
    0.8127    2.1519   13.2944 C   0  0  0  0  0  0  0  0  0  0  0  0
    1.9596    1.5951   13.4650 O   0  0  0  0  0  0  0  0  0  0  0  0
    0.4750    3.2208   14.1992 C   0  0  0  0  0  0  0  0  0  0  0  0
    1.2734    3.4388   15.3060 C   0  0  0  0  0  0  0  0  0  0  0  0
    1.0174    4.4414   16.2183 C   0  0  0  0  0  0  0  0  0  0  0  0
   -0.0726    5.2657   16.0328 C   0  0  0  0  0  0  0  0  0  0  0  0
   -0.8486    5.0420   14.9431 C   0  0  0  0  0  0  0  0  0  0  0  0
   -0.6089    4.0255   13.9971 C   0  0  0  0  0  0  0  0  0  0  0  0
   -1.4755    3.8943   12.9205 O   0  0  0  0  0  0  0  0  0  0  0  0
   -2.6352    4.6905   12.8436 C   0  0  0  0  0  0  0  0  0  0  0  0
   -0.3519    6.3057   16.9640 N   0  0  0  0  0  0  0  0  0  0  0  0
   -1.5154    7.1573   16.8435 C   0  0  0  0  0  0  0  0  0  0  0  0
    2.0723    4.6591   17.5975 Cl  0  0  0  0  0  0  0  0  0  0  0  0
  1  2  1  0
  2  3  1  0
  3  4  1  0
  4  5  1  0
  5  6  1  0
  6  7  1  0
  7  8  1  0
  8  9  2  0
  9 10  1  0
 10 11  2  0
 11 12  1  0
 12 13  2  0
  3 14  1  0
 14 15  1  0
 15 16  2  0
 15 17  1  0
 17 18  2  0
 18 19  1  0
 19 20  2  0
 20 21  1  0
 21 22  2  0
 22 23  1  0
 23 24  1  0
 20 25  1  0
 25 26  1  0
 19 27  1  0
  6  2  1  0
 13  8  1  0
 22 17  1  0
M  END
$$$$
