
     RDKit          3D

 27 29  0  0  0  0  0  0  0  0999 V2000
   -0.9376   -0.8397    8.3798 C   0  0  0  0  0  0  0  0  0  0  0  0
   -0.2104    0.2385    9.1535 C   0  0  0  0  0  0  0  0  0  0  0  0
   -1.1437    1.4150    9.3158 C   0  0  0  0  0  0  0  0  0  0  0  0
   -0.4223    2.6034    8.7190 C   0  0  0  0  0  0  0  0  0  0  0  0
    0.7475    1.9965    7.9814 C   0  0  0  0  0  0  0  0  0  0  0  0
    0.9755    0.7030    8.5285 N   0  0  0  0  0  0  0  0  0  0  0  0
    1.6271   -0.2113    7.6508 C   0  0  0  0  0  0  0  0  0  0  0  0
    2.2958   -1.2521    8.4739 C   0  0  0  0  0  0  0  0  0  0  0  0
    3.2181   -0.9596    9.4536 C   0  0  0  0  0  0  0  0  0  0  0  0
    3.7897   -1.9877   10.1707 C   0  0  0  0  0  0  0  0  0  0  0  0
    3.4759   -3.3186    9.9496 C   0  0  0  0  0  0  0  0  0  0  0  0
    2.5494   -3.5841    8.9628 C   0  0  0  0  0  0  0  0  0  0  0  0
    1.9692   -2.5681    8.2373 C   0  0  0  0  0  0  0  0  0  0  0  0
   -1.4142    1.6946   10.7097 N   0  0  0  0  0  0  0  0  0  0  0  0
   -0.3431    1.9724   11.5746 C   0  0  0  0  0  0  0  0  0  0  0  0
    0.7980    1.4934   11.2242 O   0  0  0  0  0  0  0  0  0  0  0  0
   -0.3752    2.7273   12.8011 C   0  0  0  0  0  0  0  0  0  0  0  0
   -1.1725    3.8537   12.8737 C   0  0  0  0  0  0  0  0  0  0  0  0
   -1.2580    4.6290   14.0117 C   0  0  0  0  0  0  0  0  0  0  0  0
   -0.5263    4.2797   15.1272 C   0  0  0  0  0  0  0  0  0  0  0  0
    0.2524    3.1724   15.0440 C   0  0  0  0  0  0  0  0  0  0  0  0
    0.3571    2.3642   13.8943 C   0  0  0  0  0  0  0  0  0  0  0  0
    1.1890    1.2534   13.9298 O   0  0  0  0  0  0  0  0  0  0  0  0
    1.7182    0.8036   15.1556 C   0  0  0  0  0  0  0  0  0  0  0  0
   -0.6026    5.0679   16.3103 N   0  0  0  0  0  0  0  0  0  0  0  0
    0.1670    4.7569   17.4955 C   0  0  0  0  0  0  0  0  0  0  0  0
   -2.2892    6.0427   14.0312 Cl  0  0  0  0  0  0  0  0  0  0  0  0
  1  2  1  0
  2  3  1  0
  3  4  1  0
  4  5  1  0
  5  6  1  0
  6  7  1  0
  7  8  1  0
  8  9  2  0
  9 10  1  0
 10 11  2  0
 11 12  1  0
 12 13  2  0
  3 14  1  0
 14 15  1  0
 15 16  2  0
 15 17  1  0
 17 18  2  0
 18 19  1  0
 19 20  2  0
 20 21  1  0
 21 22  2  0
 22 23  1  0
 23 24  1  0
 20 25  1  0
 25 26  1  0
 19 27  1  0
  6  2  1  0
 13  8  1  0
 22 17  1  0
M  END
$$$$
