
     RDKit          3D

 27 29  0  0  0  0  0  0  0  0999 V2000
   -0.0985    0.5963    9.0307 C   0  0  0  0  0  0  0  0  0  0  0  0
    0.2606    0.4382   10.4922 C   0  0  0  0  0  0  0  0  0  0  0  0
    1.1653    1.5828   10.8831 C   0  0  0  0  0  0  0  0  0  0  0  0
    2.4279    0.9487   11.4240 C   0  0  0  0  0  0  0  0  0  0  0  0
    2.3071   -0.5068   11.0401 C   0  0  0  0  0  0  0  0  0  0  0  0
    0.9308   -0.7742   10.7982 N   0  0  0  0  0  0  0  0  0  0  0  0
    0.6791   -1.8729    9.9262 C   0  0  0  0  0  0  0  0  0  0  0  0
    1.9142   -2.1408    9.1448 C   0  0  0  0  0  0  0  0  0  0  0  0
    3.0437   -2.7067    9.6925 C   0  0  0  0  0  0  0  0  0  0  0  0
    4.1459   -2.9210    8.8943 C   0  0  0  0  0  0  0  0  0  0  0  0
    4.1714   -2.5895    7.5496 C   0  0  0  0  0  0  0  0  0  0  0  0
    3.0273   -2.0242    7.0261 C   0  0  0  0  0  0  0  0  0  0  0  0
    1.9176   -1.8035    7.8103 C   0  0  0  0  0  0  0  0  0  0  0  0
    0.5775    2.3971   11.9252 N   0  0  0  0  0  0  0  0  0  0  0  0
   -0.0978    3.5777   11.5752 C   0  0  0  0  0  0  0  0  0  0  0  0
   -0.2029    3.8097   10.3144 O   0  0  0  0  0  0  0  0  0  0  0  0
   -0.6827    4.5525   12.4601 C   0  0  0  0  0  0  0  0  0  0  0  0
   -0.0271    4.8695   13.6347 C   0  0  0  0  0  0  0  0  0  0  0  0
   -0.5214    5.7921   14.5333 C   0  0  0  0  0  0  0  0  0  0  0  0
   -1.7136    6.4307   14.2637 C   0  0  0  0  0  0  0  0  0  0  0  0
   -2.3477    6.1114   13.1081 C   0  0  0  0  0  0  0  0  0  0  0  0
   -1.8643    5.1732   12.1743 C   0  0  0  0  0  0  0  0  0  0  0  0
   -2.6039    4.9299   11.0249 O   0  0  0  0  0  0  0  0  0  0  0  0
   -3.9004    5.4645   10.8904 C   0  0  0  0  0  0  0  0  0  0  0  0
   -2.2385    7.3859   15.1796 N   0  0  0  0  0  0  0  0  0  0  0  0
   -3.5581    7.9588   15.0252 C   0  0  0  0  0  0  0  0  0  0  0  0
    0.3636    6.1437   16.0015 Cl  0  0  0  0  0  0  0  0  0  0  0  0
  1  2  1  0
  2  3  1  0
  3  4  1  0
  4  5  1  0
  5  6  1  0
  6  7  1  0
  7  8  1  0
  8  9  2  0
  9 10  1  0
 10 11  2  0
 11 12  1  0
 12 13  2  0
  3 14  1  0
 14 15  1  0
 15 16  2  0
 15 17  1  0
 17 18  2  0
 18 19  1  0
 19 20  2  0
 20 21  1  0
 21 22  2  0
 22 23  1  0
 23 24  1  0
 20 25  1  0
 25 26  1  0
 19 27  1  0
  6  2  1  0
 13  8  1  0
 22 17  1  0
M  END
$$$$
