
     RDKit          3D

 27 29  0  0  0  0  0  0  0  0999 V2000
   -0.6289    1.1344    8.3383 C   0  0  0  0  0  0  0  0  0  0  0  0
   -0.3203    1.4178    9.7924 C   0  0  0  0  0  0  0  0  0  0  0  0
    0.4357    2.7232    9.8695 C   0  0  0  0  0  0  0  0  0  0  0  0
    1.7346    2.4102   10.5792 C   0  0  0  0  0  0  0  0  0  0  0  0
    1.7907    0.9012   10.6039 C   0  0  0  0  0  0  0  0  0  0  0  0
    0.4640    0.4193   10.4255 N   0  0  0  0  0  0  0  0  0  0  0  0
    0.3730   -0.8948    9.8818 C   0  0  0  0  0  0  0  0  0  0  0  0
    1.7172   -1.2887    9.3859 C   0  0  0  0  0  0  0  0  0  0  0  0
    2.0607   -1.2777    8.0525 C   0  0  0  0  0  0  0  0  0  0  0  0
    3.3314   -1.6581    7.6800 C   0  0  0  0  0  0  0  0  0  0  0  0
    4.2916   -2.0560    8.5956 C   0  0  0  0  0  0  0  0  0  0  0  0
    3.9217   -2.0579    9.9244 C   0  0  0  0  0  0  0  0  0  0  0  0
    2.6561   -1.6807   10.3130 C   0  0  0  0  0  0  0  0  0  0  0  0
   -0.2834    3.7127   10.6430 N   0  0  0  0  0  0  0  0  0  0  0  0
   -0.3536    3.5744   12.0389 C   0  0  0  0  0  0  0  0  0  0  0  0
    0.1778    2.5079   12.5232 O   0  0  0  0  0  0  0  0  0  0  0  0
   -0.9484    4.4839   12.9846 C   0  0  0  0  0  0  0  0  0  0  0  0
   -2.1972    5.0100   12.7135 C   0  0  0  0  0  0  0  0  0  0  0  0
   -2.8336    5.8862   13.5682 C   0  0  0  0  0  0  0  0  0  0  0  0
   -2.2131    6.2608   14.7415 C   0  0  0  0  0  0  0  0  0  0  0  0
   -0.9879    5.7380   14.9965 C   0  0  0  0  0  0  0  0  0  0  0  0
   -0.3169    4.8420   14.1406 C   0  0  0  0  0  0  0  0  0  0  0  0
    0.9366    4.3737   14.5103 O   0  0  0  0  0  0  0  0  0  0  0  0
    1.5520    4.8488   15.6854 C   0  0  0  0  0  0  0  0  0  0  0  0
   -2.8551    7.1637   15.6355 N   0  0  0  0  0  0  0  0  0  0  0  0
   -2.2538    7.5678   16.8880 C   0  0  0  0  0  0  0  0  0  0  0  0
   -4.4156    6.5127   13.1596 Cl  0  0  0  0  0  0  0  0  0  0  0  0
  1  2  1  0
  2  3  1  0
  3  4  1  0
  4  5  1  0
  5  6  1  0
  6  7  1  0
  7  8  1  0
  8  9  2  0
  9 10  1  0
 10 11  2  0
 11 12  1  0
 12 13  2  0
  3 14  1  0
 14 15  1  0
 15 16  2  0
 15 17  1  0
 17 18  2  0
 18 19  1  0
 19 20  2  0
 20 21  1  0
 21 22  2  0
 22 23  1  0
 23 24  1  0
 20 25  1  0
 25 26  1  0
 19 27  1  0
  6  2  1  0
 13  8  1  0
 22 17  1  0
M  END
$$$$
