
     RDKit          3D

 27 29  0  0  0  0  0  0  0  0999 V2000
    1.4171    0.1311   11.3538 C   0  0  0  0  0  0  0  0  0  0  0  0
    1.1519    0.7792   10.0123 C   0  0  0  0  0  0  0  0  0  0  0  0
   -0.2948    0.5402    9.6497 C   0  0  0  0  0  0  0  0  0  0  0  0
   -0.2771   -0.1573    8.3072 C   0  0  0  0  0  0  0  0  0  0  0  0
    1.1679   -0.5498    8.1110 C   0  0  0  0  0  0  0  0  0  0  0  0
    1.9567    0.2796    8.9562 N   0  0  0  0  0  0  0  0  0  0  0  0
    3.2168   -0.2720    9.3284 C   0  0  0  0  0  0  0  0  0  0  0  0
    3.2575   -1.6877    8.8788 C   0  0  0  0  0  0  0  0  0  0  0  0
    3.3837   -2.0546    7.5576 C   0  0  0  0  0  0  0  0  0  0  0  0
    3.4138   -3.3922    7.2288 C   0  0  0  0  0  0  0  0  0  0  0  0
    3.3219   -4.3977    8.1770 C   0  0  0  0  0  0  0  0  0  0  0  0
    3.1962   -4.0030    9.4927 C   0  0  0  0  0  0  0  0  0  0  0  0
    3.1646   -2.6707    9.8378 C   0  0  0  0  0  0  0  0  0  0  0  0
   -1.0239    1.7827    9.5120 N   0  0  0  0  0  0  0  0  0  0  0  0
   -1.2740    2.5620   10.6534 C   0  0  0  0  0  0  0  0  0  0  0  0
   -0.6269    2.2263   11.7131 O   0  0  0  0  0  0  0  0  0  0  0  0
   -2.1661    3.6867   10.7730 C   0  0  0  0  0  0  0  0  0  0  0  0
   -2.7886    3.9221   11.9842 C   0  0  0  0  0  0  0  0  0  0  0  0
   -3.6554    4.9775   12.1791 C   0  0  0  0  0  0  0  0  0  0  0  0
   -3.9211    5.8390   11.1354 C   0  0  0  0  0  0  0  0  0  0  0  0
   -3.3044    5.5978    9.9518 C   0  0  0  0  0  0  0  0  0  0  0  0
   -2.4155    4.5277    9.7271 C   0  0  0  0  0  0  0  0  0  0  0  0
   -1.8448    4.3835    8.4698 O   0  0  0  0  0  0  0  0  0  0  0  0
   -2.1401    5.3071    7.4477 C   0  0  0  0  0  0  0  0  0  0  0  0
   -4.8127    6.9336   11.3186 N   0  0  0  0  0  0  0  0  0  0  0  0
   -5.1088    7.8732   10.2589 C   0  0  0  0  0  0  0  0  0  0  0  0
   -4.4078    5.2142   13.7412 Cl  0  0  0  0  0  0  0  0  0  0  0  0
  1  2  1  0
  2  3  1  0
  3  4  1  0
  4  5  1  0
  5  6  1  0
  6  7  1  0
  7  8  1  0
  8  9  2  0
  9 10  1  0
 10 11  2  0
 11 12  1  0
 12 13  2  0
  3 14  1  0
 14 15  1  0
 15 16  2  0
 15 17  1  0
 17 18  2  0
 18 19  1  0
 19 20  2  0
 20 21  1  0
 21 22  2  0
 22 23  1  0
 23 24  1  0
 20 25  1  0
 25 26  1  0
 19 27  1  0
  6  2  1  0
 13  8  1  0
 22 17  1  0
M  END
$$$$
