
     RDKit          3D

 27 29  0  0  0  0  0  0  0  0999 V2000
    2.7810    0.9068   10.7947 C   0  0  0  0  0  0  0  0  0  0  0  0
    1.4461    0.6604   10.1259 C   0  0  0  0  0  0  0  0  0  0  0  0
    0.4205    0.3930   11.2021 C   0  0  0  0  0  0  0  0  0  0  0  0
   -0.1759   -0.9598   10.8812 C   0  0  0  0  0  0  0  0  0  0  0  0
    0.7395   -1.5284    9.8231 C   0  0  0  0  0  0  0  0  0  0  0  0
    1.4388   -0.4402    9.2306 N   0  0  0  0  0  0  0  0  0  0  0  0
    2.6899   -0.7833    8.6407 C   0  0  0  0  0  0  0  0  0  0  0  0
    2.8110   -2.2642    8.6319 C   0  0  0  0  0  0  0  0  0  0  0  0
    3.1104   -3.0018    9.7555 C   0  0  0  0  0  0  0  0  0  0  0  0
    3.2027   -4.3729    9.6576 C   0  0  0  0  0  0  0  0  0  0  0  0
    3.0061   -5.0527    8.4668 C   0  0  0  0  0  0  0  0  0  0  0  0
    2.7076   -4.2903    7.3568 C   0  0  0  0  0  0  0  0  0  0  0  0
    2.6117   -2.9193    7.4379 C   0  0  0  0  0  0  0  0  0  0  0  0
   -0.6399    1.3777   11.1867 N   0  0  0  0  0  0  0  0  0  0  0  0
   -0.3675    2.6868   11.6164 C   0  0  0  0  0  0  0  0  0  0  0  0
    0.8397    2.9101   12.0002 O   0  0  0  0  0  0  0  0  0  0  0  0
   -1.2786    3.8010   11.6765 C   0  0  0  0  0  0  0  0  0  0  0  0
   -1.5132    4.4094   12.8950 C   0  0  0  0  0  0  0  0  0  0  0  0
   -2.3707    5.4811   13.0351 C   0  0  0  0  0  0  0  0  0  0  0  0
   -3.0259    5.9753   11.9269 C   0  0  0  0  0  0  0  0  0  0  0  0
   -2.7877    5.3700   10.7368 C   0  0  0  0  0  0  0  0  0  0  0  0
   -1.9173    4.2749   10.5671 C   0  0  0  0  0  0  0  0  0  0  0  0
   -1.7544    3.7390    9.2968 O   0  0  0  0  0  0  0  0  0  0  0  0
   -2.2429    4.4283    8.1693 C   0  0  0  0  0  0  0  0  0  0  0  0
   -3.9141    7.0808   12.0528 N   0  0  0  0  0  0  0  0  0  0  0  0
   -4.5847    7.6657   10.9119 C   0  0  0  0  0  0  0  0  0  0  0  0
   -2.6193    6.2018   14.6102 Cl  0  0  0  0  0  0  0  0  0  0  0  0
  1  2  1  0
  2  3  1  0
  3  4  1  0
  4  5  1  0
  5  6  1  0
  6  7  1  0
  7  8  1  0
  8  9  2  0
  9 10  1  0
 10 11  2  0
 11 12  1  0
 12 13  2  0
  3 14  1  0
 14 15  1  0
 15 16  2  0
 15 17  1  0
 17 18  2  0
 18 19  1  0
 19 20  2  0
 20 21  1  0
 21 22  2  0
 22 23  1  0
 23 24  1  0
 20 25  1  0
 25 26  1  0
 19 27  1  0
  6  2  1  0
 13  8  1  0
 22 17  1  0
M  END
$$$$
