
     RDKit          3D

 27 29  0  0  0  0  0  0  0  0999 V2000
   -2.0787    2.4874   12.5717 C   0  0  0  0  0  0  0  0  0  0  0  0
   -0.7015    2.7908   12.0228 C   0  0  0  0  0  0  0  0  0  0  0  0
    0.2073    1.6324   12.3598 C   0  0  0  0  0  0  0  0  0  0  0  0
    1.3631    2.2231   13.1372 C   0  0  0  0  0  0  0  0  0  0  0  0
    0.9124    3.6268   13.4644 C   0  0  0  0  0  0  0  0  0  0  0  0
   -0.1157    3.9733   12.5438 N   0  0  0  0  0  0  0  0  0  0  0  0
   -1.0179    4.9757   13.0041 C   0  0  0  0  0  0  0  0  0  0  0  0
   -0.7383    5.2308   14.4410 C   0  0  0  0  0  0  0  0  0  0  0  0
    0.4117    5.8430   14.8871 C   0  0  0  0  0  0  0  0  0  0  0  0
    0.5897    6.0412   16.2387 C   0  0  0  0  0  0  0  0  0  0  0  0
   -0.3457    5.6486   17.1819 C   0  0  0  0  0  0  0  0  0  0  0  0
   -1.4884    5.0379   16.7086 C   0  0  0  0  0  0  0  0  0  0  0  0
   -1.6814    4.8325   15.3611 C   0  0  0  0  0  0  0  0  0  0  0  0
    0.7311    0.9995   11.1683 N   0  0  0  0  0  0  0  0  0  0  0  0
    1.3391   -0.2623   11.2720 C   0  0  0  0  0  0  0  0  0  0  0  0
    1.5399   -0.6904   12.4682 O   0  0  0  0  0  0  0  0  0  0  0  0
    1.7611   -1.1266   10.1996 C   0  0  0  0  0  0  0  0  0  0  0  0
    2.6609   -2.1400   10.4707 C   0  0  0  0  0  0  0  0  0  0  0  0
    3.1129   -3.0090    9.4993 C   0  0  0  0  0  0  0  0  0  0  0  0
    2.6589   -2.8745    8.2040 C   0  0  0  0  0  0  0  0  0  0  0  0
    1.7762   -1.8765    7.9502 C   0  0  0  0  0  0  0  0  0  0  0  0
    1.2994   -0.9763    8.9239 C   0  0  0  0  0  0  0  0  0  0  0  0
    0.3957    0.0061    8.5426 O   0  0  0  0  0  0  0  0  0  0  0  0
    0.0036    0.1233    7.1945 C   0  0  0  0  0  0  0  0  0  0  0  0
    3.1143   -3.7626    7.1888 N   0  0  0  0  0  0  0  0  0  0  0  0
    2.7004   -3.6337    5.8083 C   0  0  0  0  0  0  0  0  0  0  0  0
    4.2532   -4.2695    9.9156 Cl  0  0  0  0  0  0  0  0  0  0  0  0
  1  2  1  0
  2  3  1  0
  3  4  1  0
  4  5  1  0
  5  6  1  0
  6  7  1  0
  7  8  1  0
  8  9  2  0
  9 10  1  0
 10 11  2  0
 11 12  1  0
 12 13  2  0
  3 14  1  0
 14 15  1  0
 15 16  2  0
 15 17  1  0
 17 18  2  0
 18 19  1  0
 19 20  2  0
 20 21  1  0
 21 22  2  0
 22 23  1  0
 23 24  1  0
 20 25  1  0
 25 26  1  0
 19 27  1  0
  6  2  1  0
 13  8  1  0
 22 17  1  0
M  END
$$$$
