
     RDKit          3D

 27 29  0  0  0  0  0  0  0  0999 V2000
    2.6535    1.1933   11.3879 C   0  0  0  0  0  0  0  0  0  0  0  0
    1.2181    1.6663   11.3101 C   0  0  0  0  0  0  0  0  0  0  0  0
    0.4744    1.1179   12.5049 C   0  0  0  0  0  0  0  0  0  0  0  0
   -0.6906    0.3320   11.9446 C   0  0  0  0  0  0  0  0  0  0  0  0
   -0.3874    0.2180   10.4696 C   0  0  0  0  0  0  0  0  0  0  0  0
    0.5324    1.2521   10.1392 N   0  0  0  0  0  0  0  0  0  0  0  0
    1.3386    0.9919    8.9933 C   0  0  0  0  0  0  0  0  0  0  0  0
    1.8619   -0.3950    9.0962 C   0  0  0  0  0  0  0  0  0  0  0  0
    3.0137   -0.7163    9.7790 C   0  0  0  0  0  0  0  0  0  0  0  0
    3.4268   -2.0298    9.8246 C   0  0  0  0  0  0  0  0  0  0  0  0
    2.7289   -3.0552    9.2080 C   0  0  0  0  0  0  0  0  0  0  0  0
    1.5790   -2.7063    8.5309 C   0  0  0  0  0  0  0  0  0  0  0  0
    1.1527   -1.3984    8.4760 C   0  0  0  0  0  0  0  0  0  0  0  0
   -0.0465    2.1768   13.3426 N   0  0  0  0  0  0  0  0  0  0  0  0
   -1.0815    2.9916   12.8551 C   0  0  0  0  0  0  0  0  0  0  0  0
   -1.4926    2.7229   11.6663 O   0  0  0  0  0  0  0  0  0  0  0  0
   -1.7313    4.0865   13.5290 C   0  0  0  0  0  0  0  0  0  0  0  0
   -3.0997    4.2333   13.4028 C   0  0  0  0  0  0  0  0  0  0  0  0
   -3.7951    5.2544   14.0167 C   0  0  0  0  0  0  0  0  0  0  0  0
   -3.1132    6.1713   14.7889 C   0  0  0  0  0  0  0  0  0  0  0  0
   -1.7708    6.0169   14.9052 C   0  0  0  0  0  0  0  0  0  0  0  0
   -1.0375    4.9834   14.2888 C   0  0  0  0  0  0  0  0  0  0  0  0
    0.3361    4.9292   14.4822 O   0  0  0  0  0  0  0  0  0  0  0  0
    0.9759    5.8885   15.2918 C   0  0  0  0  0  0  0  0  0  0  0  0
   -3.8146    7.2313   15.4301 N   0  0  0  0  0  0  0  0  0  0  0  0
   -3.1317    8.2813   16.1545 C   0  0  0  0  0  0  0  0  0  0  0  0
   -5.5287    5.3781   13.8123 Cl  0  0  0  0  0  0  0  0  0  0  0  0
  1  2  1  0
  2  3  1  0
  3  4  1  0
  4  5  1  0
  5  6  1  0
  6  7  1  0
  7  8  1  0
  8  9  2  0
  9 10  1  0
 10 11  2  0
 11 12  1  0
 12 13  2  0
  3 14  1  0
 14 15  1  0
 15 16  2  0
 15 17  1  0
 17 18  2  0
 18 19  1  0
 19 20  2  0
 20 21  1  0
 21 22  2  0
 22 23  1  0
 23 24  1  0
 20 25  1  0
 25 26  1  0
 19 27  1  0
  6  2  1  0
 13  8  1  0
 22 17  1  0
M  END
$$$$
