
     RDKit          3D

 27 29  0  0  0  0  0  0  0  0999 V2000
   -1.1029    0.1168    8.0172 C   0  0  0  0  0  0  0  0  0  0  0  0
   -0.2404    0.6434    9.1435 C   0  0  0  0  0  0  0  0  0  0  0  0
   -0.7181    2.0327    9.4947 C   0  0  0  0  0  0  0  0  0  0  0  0
    0.4855    2.9368    9.3437 C   0  0  0  0  0  0  0  0  0  0  0  0
    1.5056    2.0820    8.6299 C   0  0  0  0  0  0  0  0  0  0  0  0
    1.1411    0.7213    8.8302 N   0  0  0  0  0  0  0  0  0  0  0  0
    1.6142   -0.1779    7.8310 C   0  0  0  0  0  0  0  0  0  0  0  0
    2.3397   -1.2853    8.5056 C   0  0  0  0  0  0  0  0  0  0  0  0
    1.8668   -2.5777    8.5510 C   0  0  0  0  0  0  0  0  0  0  0  0
    2.6053   -3.5441    9.1981 C   0  0  0  0  0  0  0  0  0  0  0  0
    3.8166   -3.2730    9.8129 C   0  0  0  0  0  0  0  0  0  0  0  0
    4.2674   -1.9708    9.7529 C   0  0  0  0  0  0  0  0  0  0  0  0
    3.5414   -0.9936    9.1102 C   0  0  0  0  0  0  0  0  0  0  0  0
   -1.1807    2.1089   10.8639 N   0  0  0  0  0  0  0  0  0  0  0  0
   -0.2595    2.3946   11.8848 C   0  0  0  0  0  0  0  0  0  0  0  0
    0.9282    1.9318   11.7127 O   0  0  0  0  0  0  0  0  0  0  0  0
   -0.4903    3.1414   13.0948 C   0  0  0  0  0  0  0  0  0  0  0  0
    0.4664    4.0449   13.5171 C   0  0  0  0  0  0  0  0  0  0  0  0
    0.3196    4.7979   14.6637 C   0  0  0  0  0  0  0  0  0  0  0  0
   -0.8193    4.6551   15.4281 C   0  0  0  0  0  0  0  0  0  0  0  0
   -1.7510    3.7655   15.0036 C   0  0  0  0  0  0  0  0  0  0  0  0
   -1.6251    2.9849   13.8372 C   0  0  0  0  0  0  0  0  0  0  0  0
   -2.6478    2.1069   13.5050 O   0  0  0  0  0  0  0  0  0  0  0  0
   -3.7774    1.9873   14.3384 C   0  0  0  0  0  0  0  0  0  0  0  0
   -0.9878    5.4241   16.6142 N   0  0  0  0  0  0  0  0  0  0  0  0
   -2.1252    5.2503   17.4915 C   0  0  0  0  0  0  0  0  0  0  0  0
    1.5733    5.9231   15.1374 Cl  0  0  0  0  0  0  0  0  0  0  0  0
  1  2  1  0
  2  3  1  0
  3  4  1  0
  4  5  1  0
  5  6  1  0
  6  7  1  0
  7  8  1  0
  8  9  2  0
  9 10  1  0
 10 11  2  0
 11 12  1  0
 12 13  2  0
  3 14  1  0
 14 15  1  0
 15 16  2  0
 15 17  1  0
 17 18  2  0
 18 19  1  0
 19 20  2  0
 20 21  1  0
 21 22  2  0
 22 23  1  0
 23 24  1  0
 20 25  1  0
 25 26  1  0
 19 27  1  0
  6  2  1  0
 13  8  1  0
 22 17  1  0
M  END
$$$$
