
     RDKit          3D

 27 29  0  0  0  0  0  0  0  0999 V2000
    2.2508    0.5132   10.4405 C   0  0  0  0  0  0  0  0  0  0  0  0
    1.1136    1.0449    9.5954 C   0  0  0  0  0  0  0  0  0  0  0  0
   -0.1880    0.6250   10.2364 C   0  0  0  0  0  0  0  0  0  0  0  0
   -0.9434   -0.1467    9.1767 C   0  0  0  0  0  0  0  0  0  0  0  0
    0.0794   -0.3875    8.0920 C   0  0  0  0  0  0  0  0  0  0  0  0
    1.1148    0.5743    8.2570 N   0  0  0  0  0  0  0  0  0  0  0  0
    2.3790    0.1898    7.7234 C   0  0  0  0  0  0  0  0  0  0  0  0
    2.6246   -1.2308    8.0831 C   0  0  0  0  0  0  0  0  0  0  0  0
    3.4222   -2.0694    7.3368 C   0  0  0  0  0  0  0  0  0  0  0  0
    3.5965   -3.3739    7.7440 C   0  0  0  0  0  0  0  0  0  0  0  0
    2.9994   -3.8880    8.8833 C   0  0  0  0  0  0  0  0  0  0  0  0
    2.2058   -3.0272    9.6125 C   0  0  0  0  0  0  0  0  0  0  0  0
    2.0215   -1.7209    9.2192 C   0  0  0  0  0  0  0  0  0  0  0  0
   -0.9847    1.7682   10.6274 N   0  0  0  0  0  0  0  0  0  0  0  0
   -0.7473    2.3776   11.8703 C   0  0  0  0  0  0  0  0  0  0  0  0
    0.4176    2.1782   12.3781 O   0  0  0  0  0  0  0  0  0  0  0  0
   -1.6524    3.1950   12.6369 C   0  0  0  0  0  0  0  0  0  0  0  0
   -2.3805    4.1757   11.9903 C   0  0  0  0  0  0  0  0  0  0  0  0
   -3.2674    4.9985   12.6532 C   0  0  0  0  0  0  0  0  0  0  0  0
   -3.4453    4.8493   14.0126 C   0  0  0  0  0  0  0  0  0  0  0  0
   -2.7254    3.8837   14.6362 C   0  0  0  0  0  0  0  0  0  0  0  0
   -1.8137    3.0308   13.9824 C   0  0  0  0  0  0  0  0  0  0  0  0
   -1.1337    2.0783   14.7291 O   0  0  0  0  0  0  0  0  0  0  0  0
   -1.3303    1.9973   16.1218 C   0  0  0  0  0  0  0  0  0  0  0  0
   -4.3566    5.6893   14.7130 N   0  0  0  0  0  0  0  0  0  0  0  0
   -4.5857    5.5621   16.1360 C   0  0  0  0  0  0  0  0  0  0  0  0
   -4.1559    6.2195   11.7688 Cl  0  0  0  0  0  0  0  0  0  0  0  0
  1  2  1  0
  2  3  1  0
  3  4  1  0
  4  5  1  0
  5  6  1  0
  6  7  1  0
  7  8  1  0
  8  9  2  0
  9 10  1  0
 10 11  2  0
 11 12  1  0
 12 13  2  0
  3 14  1  0
 14 15  1  0
 15 16  2  0
 15 17  1  0
 17 18  2  0
 18 19  1  0
 19 20  2  0
 20 21  1  0
 21 22  2  0
 22 23  1  0
 23 24  1  0
 20 25  1  0
 25 26  1  0
 19 27  1  0
  6  2  1  0
 13  8  1  0
 22 17  1  0
M  END
$$$$
