
     RDKit          3D

 27 29  0  0  0  0  0  0  0  0999 V2000
   -0.4206   -0.7959    8.0614 C   0  0  0  0  0  0  0  0  0  0  0  0
    0.2141    0.2014    9.0061 C   0  0  0  0  0  0  0  0  0  0  0  0
   -0.6742    1.4213    9.0722 C   0  0  0  0  0  0  0  0  0  0  0  0
    0.1972    2.5921    8.6736 C   0  0  0  0  0  0  0  0  0  0  0  0
    1.4455    1.9530    8.1134 C   0  0  0  0  0  0  0  0  0  0  0  0
    1.5116    0.6246    8.6187 N   0  0  0  0  0  0  0  0  0  0  0  0
    2.2592   -0.2844    7.8153 C   0  0  0  0  0  0  0  0  0  0  0  0
    2.5197   -1.5089    8.6157 C   0  0  0  0  0  0  0  0  0  0  0  0
    2.8354   -1.4794    9.9557 C   0  0  0  0  0  0  0  0  0  0  0  0
    3.0610   -2.6640   10.6219 C   0  0  0  0  0  0  0  0  0  0  0  0
    2.9842   -3.8988    9.9991 C   0  0  0  0  0  0  0  0  0  0  0  0
    2.6664   -3.9002    8.6568 C   0  0  0  0  0  0  0  0  0  0  0  0
    2.4381   -2.7253    7.9767 C   0  0  0  0  0  0  0  0  0  0  0  0
   -1.1675    1.6515   10.4131 N   0  0  0  0  0  0  0  0  0  0  0  0
   -0.2501    1.8647   11.4550 C   0  0  0  0  0  0  0  0  0  0  0  0
    0.8641    1.2292   11.3584 O   0  0  0  0  0  0  0  0  0  0  0  0
   -0.4123    2.7076   12.6118 C   0  0  0  0  0  0  0  0  0  0  0  0
    0.6689    3.4403   13.0636 C   0  0  0  0  0  0  0  0  0  0  0  0
    0.5942    4.2702   14.1631 C   0  0  0  0  0  0  0  0  0  0  0  0
   -0.5975    4.3836   14.8480 C   0  0  0  0  0  0  0  0  0  0  0  0
   -1.6513    3.6597   14.3953 C   0  0  0  0  0  0  0  0  0  0  0  0
   -1.6010    2.8056   13.2756 C   0  0  0  0  0  0  0  0  0  0  0  0
   -2.7478    2.1150   12.9077 O   0  0  0  0  0  0  0  0  0  0  0  0
   -3.9260    2.2414   13.6698 C   0  0  0  0  0  0  0  0  0  0  0  0
   -0.6929    5.2354   15.9846 N   0  0  0  0  0  0  0  0  0  0  0  0
   -1.9368    5.4365   16.6959 C   0  0  0  0  0  0  0  0  0  0  0  0
    2.0049    5.1684   14.6783 Cl  0  0  0  0  0  0  0  0  0  0  0  0
  1  2  1  0
  2  3  1  0
  3  4  1  0
  4  5  1  0
  5  6  1  0
  6  7  1  0
  7  8  1  0
  8  9  2  0
  9 10  1  0
 10 11  2  0
 11 12  1  0
 12 13  2  0
  3 14  1  0
 14 15  1  0
 15 16  2  0
 15 17  1  0
 17 18  2  0
 18 19  1  0
 19 20  2  0
 20 21  1  0
 21 22  2  0
 22 23  1  0
 23 24  1  0
 20 25  1  0
 25 26  1  0
 19 27  1  0
  6  2  1  0
 13  8  1  0
 22 17  1  0
M  END
$$$$
