
     RDKit          3D

 27 29  0  0  0  0  0  0  0  0999 V2000
   -1.2266    0.9251    9.4064 C   0  0  0  0  0  0  0  0  0  0  0  0
    0.0073    0.8101   10.2748 C   0  0  0  0  0  0  0  0  0  0  0  0
    0.6418    2.1769   10.3780 C   0  0  0  0  0  0  0  0  0  0  0  0
    2.0628    2.0139    9.8851 C   0  0  0  0  0  0  0  0  0  0  0  0
    2.0807    0.6451    9.2474 C   0  0  0  0  0  0  0  0  0  0  0  0
    0.9851   -0.0906    9.7792 N   0  0  0  0  0  0  0  0  0  0  0  0
    0.5095   -1.1428    8.9441 C   0  0  0  0  0  0  0  0  0  0  0  0
    1.6513   -2.0392    8.6271 C   0  0  0  0  0  0  0  0  0  0  0  0
    2.0047   -3.1144    9.4116 C   0  0  0  0  0  0  0  0  0  0  0  0
    3.0785   -3.8947    9.0427 C   0  0  0  0  0  0  0  0  0  0  0  0
    3.8288   -3.6451    7.9053 C   0  0  0  0  0  0  0  0  0  0  0  0
    3.4537   -2.5624    7.1374 C   0  0  0  0  0  0  0  0  0  0  0  0
    2.3833   -1.7729    7.4923 C   0  0  0  0  0  0  0  0  0  0  0  0
    0.6813    2.6462   11.7465 N   0  0  0  0  0  0  0  0  0  0  0  0
   -0.4237    3.3395   12.2667 C   0  0  0  0  0  0  0  0  0  0  0  0
   -1.2659    3.7810   11.4005 O   0  0  0  0  0  0  0  0  0  0  0  0
   -0.7206    3.6114   13.6498 C   0  0  0  0  0  0  0  0  0  0  0  0
   -1.8503    3.0508   14.2151 C   0  0  0  0  0  0  0  0  0  0  0  0
   -2.2028    3.2625   15.5320 C   0  0  0  0  0  0  0  0  0  0  0  0
   -1.4081    4.0613   16.3273 C   0  0  0  0  0  0  0  0  0  0  0  0
   -0.3023    4.6058   15.7613 C   0  0  0  0  0  0  0  0  0  0  0  0
    0.0795    4.4053   14.4198 C   0  0  0  0  0  0  0  0  0  0  0  0
    1.2352    5.0169   13.9536 O   0  0  0  0  0  0  0  0  0  0  0  0
    1.9884    5.8501   14.8043 C   0  0  0  0  0  0  0  0  0  0  0  0
   -1.7564    4.2904   17.6885 N   0  0  0  0  0  0  0  0  0  0  0  0
   -0.9540    5.1202   18.5610 C   0  0  0  0  0  0  0  0  0  0  0  0
   -3.6484    2.5196   16.1806 Cl  0  0  0  0  0  0  0  0  0  0  0  0
  1  2  1  0
  2  3  1  0
  3  4  1  0
  4  5  1  0
  5  6  1  0
  6  7  1  0
  7  8  1  0
  8  9  2  0
  9 10  1  0
 10 11  2  0
 11 12  1  0
 12 13  2  0
  3 14  1  0
 14 15  1  0
 15 16  2  0
 15 17  1  0
 17 18  2  0
 18 19  1  0
 19 20  2  0
 20 21  1  0
 21 22  2  0
 22 23  1  0
 23 24  1  0
 20 25  1  0
 25 26  1  0
 19 27  1  0
  6  2  1  0
 13  8  1  0
 22 17  1  0
M  END
$$$$
