
     RDKit          3D

 22 23  0  0  0  0  0  0  0  0999 V2000
    5.5229   -5.8444    9.7223 N   0  0  0  0  0  0  0  0  0  0  0  0
    4.7893   -5.3556    8.9457 C   0  0  0  0  0  0  0  0  0  0  0  0
    3.8867   -4.7568    7.9995 C   0  0  0  0  0  0  0  0  0  0  0  0
    3.5799   -5.1919    6.7638 N   0  0  0  0  0  0  0  0  0  0  0  0
    2.6977   -4.3730    6.1703 C   0  0  0  0  0  0  0  0  0  0  0  0
    2.3939   -3.3331    7.0496 C   0  0  0  0  0  0  0  0  0  0  0  0
    3.1400   -3.5939    8.1688 C   0  0  0  0  0  0  0  0  0  0  0  0
    1.5068   -2.3422    6.6910 C   0  0  0  0  0  0  0  0  0  0  0  0
    1.2452   -1.3385    7.6036 O   0  0  0  0  0  0  0  0  0  0  0  0
   -0.0315   -0.7346    7.5246 C   0  0  0  0  0  0  0  0  0  0  0  0
   -0.2508    0.2525    8.6582 C   0  0  2  0  0  0  0  0  0  0  0  0
   -0.4310    1.6546    8.1331 C   0  0  0  0  0  0  0  0  0  0  0  0
   -0.8202    2.5942    9.1316 N   0  0  0  0  0  4  0  0  0  0  0  0
   -1.1890    3.8852    8.6959 C   0  0  0  0  0  0  0  0  0  0  0  0
   -1.4818    4.7391    9.9136 C   0  0  0  0  0  0  0  0  0  0  0  0
   -2.3827    3.9622    7.7982 C   0  0  0  0  0  0  0  0  0  0  0  0
   -0.0275    4.5289    7.9623 C   0  0  0  0  0  0  0  0  0  0  0  0
    0.7780    0.1110    9.5477 O   0  0  0  0  0  0  0  0  0  0  0  0
    0.9179   -2.4017    5.4263 C   0  0  0  0  0  0  0  0  0  0  0  0
    1.2181   -3.4301    4.5566 C   0  0  0  0  0  0  0  0  0  0  0  0
    2.0954   -4.4037    4.9205 C   0  0  0  0  0  0  0  0  0  0  0  0
    2.4298   -5.5165    3.9991 C   0  0  0  0  0  0  0  0  0  0  0  0
  1  2  3  0
  2  3  1  0
  3  4  1  0
  4  5  1  0
  5  6  2  0
  6  7  1  0
  6  8  1  0
  8  9  1  0
  9 10  1  0
 10 11  1  0
 11 12  1  0
 12 13  1  0
 13 14  1  0
 14 15  1  0
 14 16  1  0
 14 17  1  0
 11 18  1  1
  8 19  2  0
 19 20  1  0
 20 21  2  0
 21 22  1  0
  7  3  2  0
 21  5  1  0
M  CHG  1  13   1
M  END
$$$$
