
     RDKit          3D

 22 23  0  0  0  0  0  0  0  0999 V2000
    5.4015   -5.0026    9.9355 N   0  0  0  0  0  0  0  0  0  0  0  0
    4.7969   -4.7707    8.9553 C   0  0  0  0  0  0  0  0  0  0  0  0
    4.0516   -4.4895    7.7578 C   0  0  0  0  0  0  0  0  0  0  0  0
    3.8458   -5.3016    6.7050 N   0  0  0  0  0  0  0  0  0  0  0  0
    3.1003   -4.6956    5.7679 C   0  0  0  0  0  0  0  0  0  0  0  0
    2.7872   -3.4100    6.2107 C   0  0  0  0  0  0  0  0  0  0  0  0
    3.3856   -3.3090    7.4391 C   0  0  0  0  0  0  0  0  0  0  0  0
    2.0252   -2.5630    5.4364 C   0  0  0  0  0  0  0  0  0  0  0  0
    1.7475   -1.3020    5.9275 O   0  0  0  0  0  0  0  0  0  0  0  0
    0.8634   -0.5090    5.1589 C   0  0  0  0  0  0  0  0  0  0  0  0
    0.6729    0.8668    5.7741 C   0  0  2  0  0  0  0  0  0  0  0  0
   -0.0203    0.7753    7.1102 C   0  0  0  0  0  0  0  0  0  0  0  0
   -0.2427    2.0405    7.7276 N   0  0  0  0  0  4  0  0  0  0  0  0
   -0.8895    2.0430    8.9822 C   0  0  0  0  0  0  0  0  0  0  0  0
   -2.1832    2.8227    8.8556 C   0  0  0  0  0  0  0  0  0  0  0  0
   -0.1199    2.6354   10.1195 C   0  0  0  0  0  0  0  0  0  0  0  0
   -1.2547    0.6232    9.3725 C   0  0  0  0  0  0  0  0  0  0  0  0
    0.0320    1.6548    4.8588 O   0  0  0  0  0  0  0  0  0  0  0  0
    1.5727   -3.0204    4.1971 C   0  0  0  0  0  0  0  0  0  0  0  0
    1.8822   -4.2918    3.7591 C   0  0  0  0  0  0  0  0  0  0  0  0
    2.6353   -5.1203    4.5314 C   0  0  0  0  0  0  0  0  0  0  0  0
    2.9774   -6.4899    4.0771 C   0  0  0  0  0  0  0  0  0  0  0  0
  1  2  3  0
  2  3  1  0
  3  4  1  0
  4  5  1  0
  5  6  2  0
  6  7  1  0
  6  8  1  0
  8  9  1  0
  9 10  1  0
 10 11  1  0
 11 12  1  0
 12 13  1  0
 13 14  1  0
 14 15  1  0
 14 16  1  0
 14 17  1  0
 11 18  1  6
  8 19  2  0
 19 20  1  0
 20 21  2  0
 21 22  1  0
  7  3  2  0
 21  5  1  0
M  CHG  1  13   1
M  END
$$$$
