
     RDKit          3D

 22 23  0  0  0  0  0  0  0  0999 V2000
    4.5173   -5.5732   10.2078 N   0  0  0  0  0  0  0  0  0  0  0  0
    4.0223   -5.1575    9.2268 C   0  0  0  0  0  0  0  0  0  0  0  0
    3.4121   -4.6455    8.0293 C   0  0  0  0  0  0  0  0  0  0  0  0
    3.3707   -5.2214    6.8141 N   0  0  0  0  0  0  0  0  0  0  0  0
    2.7142   -4.4470    5.9363 C   0  0  0  0  0  0  0  0  0  0  0  0
    2.2913   -3.2903    6.5923 C   0  0  0  0  0  0  0  0  0  0  0  0
    2.7344   -3.4383    7.8803 C   0  0  0  0  0  0  0  0  0  0  0  0
    1.5880   -2.3151    5.9202 C   0  0  0  0  0  0  0  0  0  0  0  0
    1.1956   -1.1919    6.6225 O   0  0  0  0  0  0  0  0  0  0  0  0
    1.2547    0.0375    5.9252 C   0  0  0  0  0  0  0  0  0  0  0  0
    0.1894    1.0047    6.4124 C   0  0  2  0  0  0  0  0  0  0  0  0
    0.3119    1.2488    7.8955 C   0  0  0  0  0  0  0  0  0  0  0  0
   -0.1889    2.5171    8.3101 N   0  0  0  0  0  4  0  0  0  0  0  0
   -0.1610    2.8029    9.6922 C   0  0  0  0  0  0  0  0  0  0  0  0
   -1.3427    2.1180   10.3496 C   0  0  0  0  0  0  0  0  0  0  0  0
   -0.2170    4.2495   10.0676 C   0  0  0  0  0  0  0  0  0  0  0  0
    1.0975    2.2225   10.3095 C   0  0  0  0  0  0  0  0  0  0  0  0
   -1.0293    0.5259    6.0183 O   0  0  0  0  0  0  0  0  0  0  0  0
    1.3076   -2.5101    4.5663 C   0  0  0  0  0  0  0  0  0  0  0  0
    1.7256   -3.6539    3.9175 C   0  0  0  0  0  0  0  0  0  0  0  0
    2.4195   -4.6109    4.5903 C   0  0  0  0  0  0  0  0  0  0  0  0
    2.8765   -5.8465    3.9095 C   0  0  0  0  0  0  0  0  0  0  0  0
  1  2  3  0
  2  3  1  0
  3  4  1  0
  4  5  1  0
  5  6  2  0
  6  7  1  0
  6  8  1  0
  8  9  1  0
  9 10  1  0
 10 11  1  0
 11 12  1  0
 12 13  1  0
 13 14  1  0
 14 15  1  0
 14 16  1  0
 14 17  1  0
 11 18  1  1
  8 19  2  0
 19 20  1  0
 20 21  2  0
 21 22  1  0
  7  3  2  0
 21  5  1  0
M  CHG  1  13   1
M  END
$$$$
