
     RDKit          3D

 22 23  0  0  0  0  0  0  0  0999 V2000
    5.4287   -4.9982   10.0216 N   0  0  0  0  0  0  0  0  0  0  0  0
    4.7971   -4.7561    9.0611 C   0  0  0  0  0  0  0  0  0  0  0  0
    4.0286   -4.4564    7.8829 C   0  0  0  0  0  0  0  0  0  0  0  0
    3.7598   -5.2694    6.8451 N   0  0  0  0  0  0  0  0  0  0  0  0
    3.0117   -4.6428    5.9238 C   0  0  0  0  0  0  0  0  0  0  0  0
    2.7630   -3.3417    6.3620 C   0  0  0  0  0  0  0  0  0  0  0  0
    3.4009   -3.2533    7.5713 C   0  0  0  0  0  0  0  0  0  0  0  0
    2.0128   -2.4721    5.6013 C   0  0  0  0  0  0  0  0  0  0  0  0
    1.8000   -1.1965    6.0871 O   0  0  0  0  0  0  0  0  0  0  0  0
    0.6721   -0.5106    5.5786 C   0  0  0  0  0  0  0  0  0  0  0  0
    0.6001    0.9110    6.1091 C   0  0  2  0  0  0  0  0  0  0  0  0
   -0.0840    0.9576    7.4523 C   0  0  0  0  0  0  0  0  0  0  0  0
   -0.6680    2.2223    7.7537 N   0  0  0  0  0  4  0  0  0  0  0  0
   -1.2416    2.3811    9.0336 C   0  0  0  0  0  0  0  0  0  0  0  0
   -2.2615    1.2797    9.2442 C   0  0  0  0  0  0  0  0  0  0  0  0
   -1.9304    3.6835    9.2905 C   0  0  0  0  0  0  0  0  0  0  0  0
   -0.1728    2.2157   10.0975 C   0  0  0  0  0  0  0  0  0  0  0  0
    0.0152    1.6915    5.1507 O   0  0  0  0  0  0  0  0  0  0  0  0
    1.5063   -2.9226    4.3805 C   0  0  0  0  0  0  0  0  0  0  0  0
    1.7520   -4.2093    3.9470 C   0  0  0  0  0  0  0  0  0  0  0  0
    2.4940   -5.0600    4.7058 C   0  0  0  0  0  0  0  0  0  0  0  0
    2.7680   -6.4464    4.2561 C   0  0  0  0  0  0  0  0  0  0  0  0
  1  2  3  0
  2  3  1  0
  3  4  1  0
  4  5  1  0
  5  6  2  0
  6  7  1  0
  6  8  1  0
  8  9  1  0
  9 10  1  0
 10 11  1  0
 11 12  1  0
 12 13  1  0
 13 14  1  0
 14 15  1  0
 14 16  1  0
 14 17  1  0
 11 18  1  6
  8 19  2  0
 19 20  1  0
 20 21  2  0
 21 22  1  0
  7  3  2  0
 21  5  1  0
M  CHG  1  13   1
M  END
$$$$
