
     RDKit          3D

 22 23  0  0  0  0  0  0  0  0999 V2000
    5.1848   -5.6454   10.0411 N   0  0  0  0  0  0  0  0  0  0  0  0
    4.5712   -5.1703    9.1591 C   0  0  0  0  0  0  0  0  0  0  0  0
    3.8190   -4.5945    8.0769 C   0  0  0  0  0  0  0  0  0  0  0  0
    3.7487   -5.0217    6.8029 N   0  0  0  0  0  0  0  0  0  0  0  0
    2.9463   -4.2309    6.0736 C   0  0  0  0  0  0  0  0  0  0  0  0
    2.4501   -3.2193    6.8967 C   0  0  0  0  0  0  0  0  0  0  0  0
    3.0036   -3.4670    8.1254 C   0  0  0  0  0  0  0  0  0  0  0  0
    1.5950   -2.2608    6.3994 C   0  0  0  0  0  0  0  0  0  0  0  0
    1.1363   -1.2841    7.2623 O   0  0  0  0  0  0  0  0  0  0  0  0
    0.0812   -0.4707    6.7866 C   0  0  0  0  0  0  0  0  0  0  0  0
   -0.5998    0.2760    7.9208 C   0  0  2  0  0  0  0  0  0  0  0  0
    0.0993    1.5800    8.2122 C   0  0  0  0  0  0  0  0  0  0  0  0
   -0.6426    2.4494    9.0638 N   0  0  0  0  0  4  0  0  0  0  0  0
   -0.1056    3.7326    9.3037 C   0  0  0  0  0  0  0  0  0  0  0  0
    0.6959    3.6866   10.5895 C   0  0  0  0  0  0  0  0  0  0  0  0
   -1.0941    4.8474    9.4327 C   0  0  0  0  0  0  0  0  0  0  0  0
    0.8529    4.1031    8.1877 C   0  0  0  0  0  0  0  0  0  0  0  0
   -0.6868   -0.5692    8.9921 O   0  0  0  0  0  0  0  0  0  0  0  0
    1.2354   -2.3241    5.0517 C   0  0  0  0  0  0  0  0  0  0  0  0
    1.7258   -3.3245    4.2375 C   0  0  0  0  0  0  0  0  0  0  0  0
    2.5697   -4.2662    4.7385 C   0  0  0  0  0  0  0  0  0  0  0  0
    3.1064   -5.3486    3.8785 C   0  0  0  0  0  0  0  0  0  0  0  0
  1  2  3  0
  2  3  1  0
  3  4  1  0
  4  5  1  0
  5  6  2  0
  6  7  1  0
  6  8  1  0
  8  9  1  0
  9 10  1  0
 10 11  1  0
 11 12  1  0
 12 13  1  0
 13 14  1  0
 14 15  1  0
 14 16  1  0
 14 17  1  0
 11 18  1  1
  8 19  2  0
 19 20  1  0
 20 21  2  0
 21 22  1  0
  7  3  2  0
 21  5  1  0
M  CHG  1  13   1
M  END
$$$$
