
     RDKit          3D

 22 23  0  0  0  0  0  0  0  0999 V2000
    5.0396   -5.1404   10.0032 N   0  0  0  0  0  0  0  0  0  0  0  0
    4.4439   -4.8656    9.0286 C   0  0  0  0  0  0  0  0  0  0  0  0
    3.7198   -4.5268    7.8329 C   0  0  0  0  0  0  0  0  0  0  0  0
    3.5336   -5.2871    6.7386 N   0  0  0  0  0  0  0  0  0  0  0  0
    2.8044   -4.6364    5.8187 C   0  0  0  0  0  0  0  0  0  0  0  0
    2.4823   -3.3737    6.3174 C   0  0  0  0  0  0  0  0  0  0  0  0
    3.0586   -3.3322    7.5598 C   0  0  0  0  0  0  0  0  0  0  0  0
    1.7337   -2.4903    5.5714 C   0  0  0  0  0  0  0  0  0  0  0  0
    1.4462   -1.2544    6.1179 O   0  0  0  0  0  0  0  0  0  0  0  0
    0.3829   -0.5361    5.5224 C   0  0  0  0  0  0  0  0  0  0  0  0
    0.3620    0.9109    5.9844 C   0  0  2  0  0  0  0  0  0  0  0  0
   -0.0457    1.0150    7.4325 C   0  0  0  0  0  0  0  0  0  0  0  0
   -1.0328    2.0131    7.6789 N   0  0  0  0  0  4  0  0  0  0  0  0
   -1.4151    2.2270    9.0207 C   0  0  0  0  0  0  0  0  0  0  0  0
   -0.2133    2.7416    9.7878 C   0  0  0  0  0  0  0  0  0  0  0  0
   -1.9373    1.0338    9.7557 C   0  0  0  0  0  0  0  0  0  0  0  0
   -2.4841    3.3017    9.0831 C   0  0  0  0  0  0  0  0  0  0  0  0
   -0.4295    1.6189    5.1231 O   0  0  0  0  0  0  0  0  0  0  0  0
    1.3038   -2.8873    4.3036 C   0  0  0  0  0  0  0  0  0  0  0  0
    1.6221   -4.1360    3.8103 C   0  0  0  0  0  0  0  0  0  0  0  0
    2.3619   -5.0008    4.5550 C   0  0  0  0  0  0  0  0  0  0  0  0
    2.7133   -6.3469    4.0413 C   0  0  0  0  0  0  0  0  0  0  0  0
  1  2  3  0
  2  3  1  0
  3  4  1  0
  4  5  1  0
  5  6  2  0
  6  7  1  0
  6  8  1  0
  8  9  1  0
  9 10  1  0
 10 11  1  0
 11 12  1  0
 12 13  1  0
 13 14  1  0
 14 15  1  0
 14 16  1  0
 14 17  1  0
 11 18  1  6
  8 19  2  0
 19 20  1  0
 20 21  2  0
 21 22  1  0
  7  3  2  0
 21  5  1  0
M  CHG  1  13   1
M  END
$$$$
