
     RDKit          3D

 22 23  0  0  0  0  0  0  0  0999 V2000
    4.6503   -4.9067   10.2644 N   0  0  0  0  0  0  0  0  0  0  0  0
    4.0911   -4.7236    9.2475 C   0  0  0  0  0  0  0  0  0  0  0  0
    3.4021   -4.4962    8.0058 C   0  0  0  0  0  0  0  0  0  0  0  0
    3.4131   -5.2677    6.9035 N   0  0  0  0  0  0  0  0  0  0  0  0
    2.6506   -4.7356    5.9357 C   0  0  0  0  0  0  0  0  0  0  0  0
    2.0971   -3.5453    6.4087 C   0  0  0  0  0  0  0  0  0  0  0  0
    2.5763   -3.4216    7.6863 C   0  0  0  0  0  0  0  0  0  0  0  0
    1.2664   -2.7880    5.6125 C   0  0  0  0  0  0  0  0  0  0  0  0
    0.7482   -1.6190    6.1354 O   0  0  0  0  0  0  0  0  0  0  0  0
    1.4065   -0.4213    5.7705 C   0  0  0  0  0  0  0  0  0  0  0  0
    0.5496    0.7971    6.0682 C   0  0  2  0  0  0  0  0  0  0  0  0
    0.0512    0.7785    7.4914 C   0  0  0  0  0  0  0  0  0  0  0  0
   -0.4823    2.0261    7.9274 N   0  0  0  0  0  4  0  0  0  0  0  0
   -0.9335    2.1051    9.2626 C   0  0  0  0  0  0  0  0  0  0  0  0
    0.2618    1.9647   10.1841 C   0  0  0  0  0  0  0  0  0  0  0  0
   -1.9420    1.0824    9.6794 C   0  0  0  0  0  0  0  0  0  0  0  0
   -1.5414    3.4716    9.5172 C   0  0  0  0  0  0  0  0  0  0  0  0
   -0.4385    0.8604    5.1252 O   0  0  0  0  0  0  0  0  0  0  0  0
    0.9904   -3.2388    4.3200 C   0  0  0  0  0  0  0  0  0  0  0  0
    1.5375   -4.4160    3.8522 C   0  0  0  0  0  0  0  0  0  0  0  0
    2.3566   -5.1564    4.6465 C   0  0  0  0  0  0  0  0  0  0  0  0
    2.9533   -6.4241    4.1607 C   0  0  0  0  0  0  0  0  0  0  0  0
  1  2  3  0
  2  3  1  0
  3  4  1  0
  4  5  1  0
  5  6  2  0
  6  7  1  0
  6  8  1  0
  8  9  1  0
  9 10  1  0
 10 11  1  0
 11 12  1  0
 12 13  1  0
 13 14  1  0
 14 15  1  0
 14 16  1  0
 14 17  1  0
 11 18  1  6
  8 19  2  0
 19 20  1  0
 20 21  2  0
 21 22  1  0
  7  3  2  0
 21  5  1  0
M  CHG  1  13   1
M  END
$$$$
