
     RDKit          3D

 22 23  0  0  0  0  0  0  0  0999 V2000
    5.1055   -5.3805    9.9775 N   0  0  0  0  0  0  0  0  0  0  0  0
    4.4932   -5.1062    9.0132 C   0  0  0  0  0  0  0  0  0  0  0  0
    3.7400   -4.7756    7.8333 C   0  0  0  0  0  0  0  0  0  0  0  0
    3.4886   -5.5597    6.7692 N   0  0  0  0  0  0  0  0  0  0  0  0
    2.7509   -4.9095    5.8557 C   0  0  0  0  0  0  0  0  0  0  0  0
    2.4915   -3.6222    6.3272 C   0  0  0  0  0  0  0  0  0  0  0  0
    3.1122   -3.5662    7.5473 C   0  0  0  0  0  0  0  0  0  0  0  0
    1.7487   -2.7338    5.5811 C   0  0  0  0  0  0  0  0  0  0  0  0
    1.5245   -1.4732    6.0999 O   0  0  0  0  0  0  0  0  0  0  0  0
    0.6902   -0.6203    5.3398 C   0  0  0  0  0  0  0  0  0  0  0  0
    0.5851    0.7588    5.9681 C   0  0  2  0  0  0  0  0  0  0  0  0
    0.0363    0.6787    7.3704 C   0  0  0  0  0  0  0  0  0  0  0  0
   -0.4394    1.9254    7.8710 N   0  0  0  0  0  4  0  0  0  0  0  0
   -0.9028    1.9525    9.2041 C   0  0  0  0  0  0  0  0  0  0  0  0
    0.2705    1.6904   10.1273 C   0  0  0  0  0  0  0  0  0  0  0  0
   -1.9731    0.9669    9.5502 C   0  0  0  0  0  0  0  0  0  0  0  0
   -1.4355    3.3345    9.5327 C   0  0  0  0  0  0  0  0  0  0  0  0
   -0.1383    1.5547    5.1237 O   0  0  0  0  0  0  0  0  0  0  0  0
    1.2608   -3.1510    4.3411 C   0  0  0  0  0  0  0  0  0  0  0  0
    1.5172   -4.4242    3.8747 C   0  0  0  0  0  0  0  0  0  0  0  0
    2.2517   -5.2936    4.6193 C   0  0  0  0  0  0  0  0  0  0  0  0
    2.5370   -6.6657    4.1343 C   0  0  0  0  0  0  0  0  0  0  0  0
  1  2  3  0
  2  3  1  0
  3  4  1  0
  4  5  1  0
  5  6  2  0
  6  7  1  0
  6  8  1  0
  8  9  1  0
  9 10  1  0
 10 11  1  0
 11 12  1  0
 12 13  1  0
 13 14  1  0
 14 15  1  0
 14 16  1  0
 14 17  1  0
 11 18  1  6
  8 19  2  0
 19 20  1  0
 20 21  2  0
 21 22  1  0
  7  3  2  0
 21  5  1  0
M  CHG  1  13   1
M  END
$$$$
