
     RDKit          3D

 22 23  0  0  0  0  0  0  0  0999 V2000
    4.6939   -5.8302   10.0592 N   0  0  0  0  0  0  0  0  0  0  0  0
    4.2083   -5.3534    9.1015 C   0  0  0  0  0  0  0  0  0  0  0  0
    3.6090   -4.7736    7.9297 C   0  0  0  0  0  0  0  0  0  0  0  0
    3.5866   -5.2750    6.6813 N   0  0  0  0  0  0  0  0  0  0  0  0
    2.9352   -4.4529    5.8440 C   0  0  0  0  0  0  0  0  0  0  0  0
    2.4959   -3.3411    6.5635 C   0  0  0  0  0  0  0  0  0  0  0  0
    2.9243   -3.5641    7.8457 C   0  0  0  0  0  0  0  0  0  0  0  0
    1.7937   -2.3314    5.9430 C   0  0  0  0  0  0  0  0  0  0  0  0
    1.3846   -1.2556    6.7071 O   0  0  0  0  0  0  0  0  0  0  0  0
    0.9962   -0.0939    5.9995 C   0  0  0  0  0  0  0  0  0  0  0  0
   -0.0497    0.6992    6.7642 C   0  0  2  0  0  0  0  0  0  0  0  0
    0.4850    1.1657    8.0948 C   0  0  0  0  0  0  0  0  0  0  0  0
   -0.0813    2.3955    8.5399 N   0  0  0  0  0  4  0  0  0  0  0  0
    0.4208    2.9414    9.7410 C   0  0  0  0  0  0  0  0  0  0  0  0
   -0.1275    2.1361   10.9022 C   0  0  0  0  0  0  0  0  0  0  0  0
    0.0946    4.3778    9.9994 C   0  0  0  0  0  0  0  0  0  0  0  0
    1.9316    2.8067    9.7720 C   0  0  0  0  0  0  0  0  0  0  0  0
   -1.1819   -0.0630    6.8470 O   0  0  0  0  0  0  0  0  0  0  0  0
    1.5312   -2.4457    4.5763 C   0  0  0  0  0  0  0  0  0  0  0  0
    1.9654   -3.5453    3.8647 C   0  0  0  0  0  0  0  0  0  0  0  0
    2.6580   -4.5367    4.4869 C   0  0  0  0  0  0  0  0  0  0  0  0
    3.1323   -5.7258    3.7382 C   0  0  0  0  0  0  0  0  0  0  0  0
  1  2  3  0
  2  3  1  0
  3  4  1  0
  4  5  1  0
  5  6  2  0
  6  7  1  0
  6  8  1  0
  8  9  1  0
  9 10  1  0
 10 11  1  0
 11 12  1  0
 12 13  1  0
 13 14  1  0
 14 15  1  0
 14 16  1  0
 14 17  1  0
 11 18  1  1
  8 19  2  0
 19 20  1  0
 20 21  2  0
 21 22  1  0
  7  3  2  0
 21  5  1  0
M  CHG  1  13   1
M  END
$$$$
