
     RDKit          3D

 22 23  0  0  0  0  0  0  0  0999 V2000
    4.7065   -5.2800   10.0408 N   0  0  0  0  0  0  0  0  0  0  0  0
    4.2023   -5.0018    9.0169 C   0  0  0  0  0  0  0  0  0  0  0  0
    3.5793   -4.6624    7.7658 C   0  0  0  0  0  0  0  0  0  0  0  0
    3.5806   -5.3746    6.6242 N   0  0  0  0  0  0  0  0  0  0  0  0
    2.8944   -4.7408    5.6606 C   0  0  0  0  0  0  0  0  0  0  0  0
    2.4054   -3.5407    6.1778 C   0  0  0  0  0  0  0  0  0  0  0  0
    2.8418   -3.5174    7.4764 C   0  0  0  0  0  0  0  0  0  0  0  0
    1.6600   -2.6867    5.3953 C   0  0  0  0  0  0  0  0  0  0  0  0
    1.2027   -1.5130    5.9625 O   0  0  0  0  0  0  0  0  0  0  0  0
    1.5244   -0.3174    5.2783 C   0  0  0  0  0  0  0  0  0  0  0  0
    0.6739    0.8453    5.7604 C   0  0  2  0  0  0  0  0  0  0  0  0
    0.4768    0.7938    7.2546 C   0  0  0  0  0  0  0  0  0  0  0  0
   -0.0763    1.9885    7.8005 N   0  0  0  0  0  4  0  0  0  0  0  0
   -0.2887    2.0241    9.1955 C   0  0  0  0  0  0  0  0  0  0  0  0
    1.0594    2.0140    9.8884 C   0  0  0  0  0  0  0  0  0  0  0  0
   -1.0944    0.9020    9.7686 C   0  0  0  0  0  0  0  0  0  0  0  0
   -0.9812    3.3195    9.5748 C   0  0  0  0  0  0  0  0  0  0  0  0
   -0.4870    0.8487    5.0379 O   0  0  0  0  0  0  0  0  0  0  0  0
    1.4044   -3.0493    4.0712 C   0  0  0  0  0  0  0  0  0  0  0  0
    1.8879   -4.2361    3.5595 C   0  0  0  0  0  0  0  0  0  0  0  0
    2.6229   -5.0724    4.3408 C   0  0  0  0  0  0  0  0  0  0  0  0
    3.1503   -6.3519    3.8080 C   0  0  0  0  0  0  0  0  0  0  0  0
  1  2  3  0
  2  3  1  0
  3  4  1  0
  4  5  1  0
  5  6  2  0
  6  7  1  0
  6  8  1  0
  8  9  1  0
  9 10  1  0
 10 11  1  0
 11 12  1  0
 12 13  1  0
 13 14  1  0
 14 15  1  0
 14 16  1  0
 14 17  1  0
 11 18  1  6
  8 19  2  0
 19 20  1  0
 20 21  2  0
 21 22  1  0
  7  3  2  0
 21  5  1  0
M  CHG  1  13   1
M  END
$$$$
