
     RDKit          3D

 22 23  0  0  0  0  0  0  0  0999 V2000
    5.6323   -5.0415   10.1065 N   0  0  0  0  0  0  0  0  0  0  0  0
    4.9845   -4.8237    9.1509 C   0  0  0  0  0  0  0  0  0  0  0  0
    4.1908   -4.5633    7.9801 C   0  0  0  0  0  0  0  0  0  0  0  0
    3.9438   -5.3932    6.9502 N   0  0  0  0  0  0  0  0  0  0  0  0
    3.1599   -4.8037    6.0342 C   0  0  0  0  0  0  0  0  0  0  0  0
    2.8628   -3.5112    6.4677 C   0  0  0  0  0  0  0  0  0  0  0  0
    3.5104   -3.3890    7.6690 C   0  0  0  0  0  0  0  0  0  0  0  0
    2.0687   -2.6781    5.7109 C   0  0  0  0  0  0  0  0  0  0  0  0
    1.8090   -1.4092    6.1917 O   0  0  0  0  0  0  0  0  0  0  0  0
    0.8106   -0.6721    5.5127 C   0  0  0  0  0  0  0  0  0  0  0  0
    0.6594    0.7239    6.0922 C   0  0  2  0  0  0  0  0  0  0  0  0
    0.1449    0.6732    7.5089 C   0  0  0  0  0  0  0  0  0  0  0  0
   -0.2757    1.9391    8.0107 N   0  0  0  0  0  4  0  0  0  0  0  0
   -0.7886    1.9756    9.3253 C   0  0  0  0  0  0  0  0  0  0  0  0
    0.3649    1.8232   10.2968 C   0  0  0  0  0  0  0  0  0  0  0  0
   -1.8020    0.9300    9.6669 C   0  0  0  0  0  0  0  0  0  0  0  0
   -1.4250    3.3273    9.5891 C   0  0  0  0  0  0  0  0  0  0  0  0
   -0.1159    1.4559    5.2363 O   0  0  0  0  0  0  0  0  0  0  0  0
    1.5671   -3.1567    4.4988 C   0  0  0  0  0  0  0  0  0  0  0  0
    1.8607   -4.4349    4.0699 C   0  0  0  0  0  0  0  0  0  0  0  0
    2.6459   -5.2495    4.8248 C   0  0  0  0  0  0  0  0  0  0  0  0
    2.9716   -6.6262    4.3800 C   0  0  0  0  0  0  0  0  0  0  0  0
  1  2  3  0
  2  3  1  0
  3  4  1  0
  4  5  1  0
  5  6  2  0
  6  7  1  0
  6  8  1  0
  8  9  1  0
  9 10  1  0
 10 11  1  0
 11 12  1  0
 12 13  1  0
 13 14  1  0
 14 15  1  0
 14 16  1  0
 14 17  1  0
 11 18  1  6
  8 19  2  0
 19 20  1  0
 20 21  2  0
 21 22  1  0
  7  3  2  0
 21  5  1  0
M  CHG  1  13   1
M  END
$$$$
