
     RDKit          3D

 22 23  0  0  0  0  0  0  0  0999 V2000
    5.2911   -4.7940    9.9513 N   0  0  0  0  0  0  0  0  0  0  0  0
    4.7209   -4.5585    8.9514 C   0  0  0  0  0  0  0  0  0  0  0  0
    4.0241   -4.2761    7.7254 C   0  0  0  0  0  0  0  0  0  0  0  0
    3.8532   -5.0904    6.6680 N   0  0  0  0  0  0  0  0  0  0  0  0
    3.1484   -4.4824    5.7011 C   0  0  0  0  0  0  0  0  0  0  0  0
    2.8275   -3.1932    6.1276 C   0  0  0  0  0  0  0  0  0  0  0  0
    3.3790   -3.0922    7.3777 C   0  0  0  0  0  0  0  0  0  0  0  0
    2.1018   -2.3436    5.3220 C   0  0  0  0  0  0  0  0  0  0  0  0
    1.8142   -1.0791    5.7982 O   0  0  0  0  0  0  0  0  0  0  0  0
    1.4718   -0.1060    4.8302 C   0  0  0  0  0  0  0  0  0  0  0  0
    0.9909    1.1799    5.4805 C   0  0  2  0  0  0  0  0  0  0  0  0
    0.4955    0.9296    6.8827 C   0  0  0  0  0  0  0  0  0  0  0  0
    0.2609    2.1214    7.6282 N   0  0  0  0  0  4  0  0  0  0  0  0
   -0.2065    1.9745    8.9521 C   0  0  0  0  0  0  0  0  0  0  0  0
    0.8574    1.2602    9.7619 C   0  0  0  0  0  0  0  0  0  0  0  0
   -1.4827    1.2131    9.1201 C   0  0  0  0  0  0  0  0  0  0  0  0
   -0.4081    3.3416    9.5782 C   0  0  0  0  0  0  0  0  0  0  0  0
    0.0688    1.7549    4.6506 O   0  0  0  0  0  0  0  0  0  0  0  0
    1.6940   -2.8020    4.0676 C   0  0  0  0  0  0  0  0  0  0  0  0
    2.0112   -4.0770    3.6458 C   0  0  0  0  0  0  0  0  0  0  0  0
    2.7283   -4.9080    4.4490 C   0  0  0  0  0  0  0  0  0  0  0  0
    3.0780   -6.2814    4.0124 C   0  0  0  0  0  0  0  0  0  0  0  0
  1  2  3  0
  2  3  1  0
  3  4  1  0
  4  5  1  0
  5  6  2  0
  6  7  1  0
  6  8  1  0
  8  9  1  0
  9 10  1  0
 10 11  1  0
 11 12  1  0
 12 13  1  0
 13 14  1  0
 14 15  1  0
 14 16  1  0
 14 17  1  0
 11 18  1  6
  8 19  2  0
 19 20  1  0
 20 21  2  0
 21 22  1  0
  7  3  2  0
 21  5  1  0
M  CHG  1  13   1
M  END
$$$$
