
     RDKit          3D

 22 23  0  0  0  0  0  0  0  0999 V2000
    5.2610   -5.2160   10.3340 N   0  0  0  0  0  0  0  0  0  0  0  0
    4.6613   -4.9985    9.3474 C   0  0  0  0  0  0  0  0  0  0  0  0
    3.9253   -4.7267    8.1421 C   0  0  0  0  0  0  0  0  0  0  0  0
    3.6976   -5.5590    7.1098 N   0  0  0  0  0  0  0  0  0  0  0  0
    2.9701   -4.9561    6.1566 C   0  0  0  0  0  0  0  0  0  0  0  0
    2.6930   -3.6514    6.5663 C   0  0  0  0  0  0  0  0  0  0  0  0
    3.2930   -3.5364    7.7927 C   0  0  0  0  0  0  0  0  0  0  0  0
    1.9559   -2.8032    5.7698 C   0  0  0  0  0  0  0  0  0  0  0  0
    1.7134   -1.5228    6.2285 O   0  0  0  0  0  0  0  0  0  0  0  0
    0.9002   -0.7053    5.4091 C   0  0  0  0  0  0  0  0  0  0  0  0
    0.7618    0.6944    5.9830 C   0  0  2  0  0  0  0  0  0  0  0  0
    0.1431    0.6611    7.3579 C   0  0  0  0  0  0  0  0  0  0  0  0
   -0.3768    1.9185    7.7822 N   0  0  0  0  0  4  0  0  0  0  0  0
   -0.9162    1.9888    9.0848 C   0  0  0  0  0  0  0  0  0  0  0  0
   -1.5509    3.3528    9.2702 C   0  0  0  0  0  0  0  0  0  0  0  0
    0.0486    1.7878   10.2097 C   0  0  0  0  0  0  0  0  0  0  0  0
   -2.0156    0.9549    9.2399 C   0  0  0  0  0  0  0  0  0  0  0  0
    0.0808    1.4584    5.0763 O   0  0  0  0  0  0  0  0  0  0  0  0
    1.4917   -3.2788    4.5417 C   0  0  0  0  0  0  0  0  0  0  0  0
    1.7656   -4.5690    4.1364 C   0  0  0  0  0  0  0  0  0  0  0  0
    2.4944   -5.3986    4.9305 C   0  0  0  0  0  0  0  0  0  0  0  0
    2.7982   -6.7883    4.5114 C   0  0  0  0  0  0  0  0  0  0  0  0
  1  2  3  0
  2  3  1  0
  3  4  1  0
  4  5  1  0
  5  6  2  0
  6  7  1  0
  6  8  1  0
  8  9  1  0
  9 10  1  0
 10 11  1  0
 11 12  1  0
 12 13  1  0
 13 14  1  0
 14 15  1  0
 14 16  1  0
 14 17  1  0
 11 18  1  6
  8 19  2  0
 19 20  1  0
 20 21  2  0
 21 22  1  0
  7  3  2  0
 21  5  1  0
M  CHG  1  13   1
M  END
$$$$
