
     RDKit          3D

 22 23  0  0  0  0  0  0  0  0999 V2000
    4.9811   -5.2135    9.7975 N   0  0  0  0  0  0  0  0  0  0  0  0
    4.3709   -4.9307    8.8343 C   0  0  0  0  0  0  0  0  0  0  0  0
    3.6292   -4.5833    7.6520 C   0  0  0  0  0  0  0  0  0  0  0  0
    3.3715   -5.3586    6.5830 N   0  0  0  0  0  0  0  0  0  0  0  0
    2.6489   -4.6932    5.6686 C   0  0  0  0  0  0  0  0  0  0  0  0
    2.4067   -3.4041    6.1445 C   0  0  0  0  0  0  0  0  0  0  0  0
    3.0216   -3.3631    7.3682 C   0  0  0  0  0  0  0  0  0  0  0  0
    1.6817   -2.5011    5.3986 C   0  0  0  0  0  0  0  0  0  0  0  0
    1.4740   -1.2395    5.9219 O   0  0  0  0  0  0  0  0  0  0  0  0
    0.6268   -0.3833    5.1801 C   0  0  0  0  0  0  0  0  0  0  0  0
    0.5335    0.9934    5.8156 C   0  0  2  0  0  0  0  0  0  0  0  0
   -0.1046    0.9219    7.1801 C   0  0  0  0  0  0  0  0  0  0  0  0
   -0.5908    2.1761    7.6511 N   0  0  0  0  0  4  0  0  0  0  0  0
   -1.1587    2.2055    8.9430 C   0  0  0  0  0  0  0  0  0  0  0  0
   -0.0489    2.0342    9.9611 C   0  0  0  0  0  0  0  0  0  0  0  0
   -2.1947    1.1662    9.2316 C   0  0  0  0  0  0  0  0  0  0  0  0
   -1.7940    3.5605    9.1920 C   0  0  0  0  0  0  0  0  0  0  0  0
   -0.1059    1.8229    4.9365 O   0  0  0  0  0  0  0  0  0  0  0  0
    1.1941   -2.9052    4.1541 C   0  0  0  0  0  0  0  0  0  0  0  0
    1.4334   -4.1800    3.6833 C   0  0  0  0  0  0  0  0  0  0  0  0
    2.1505   -5.0640    4.4278 C   0  0  0  0  0  0  0  0  0  0  0  0
    2.4173   -6.4382    3.9381 C   0  0  0  0  0  0  0  0  0  0  0  0
  1  2  3  0
  2  3  1  0
  3  4  1  0
  4  5  1  0
  5  6  2  0
  6  7  1  0
  6  8  1  0
  8  9  1  0
  9 10  1  0
 10 11  1  0
 11 12  1  0
 12 13  1  0
 13 14  1  0
 14 15  1  0
 14 16  1  0
 14 17  1  0
 11 18  1  6
  8 19  2  0
 19 20  1  0
 20 21  2  0
 21 22  1  0
  7  3  2  0
 21  5  1  0
M  CHG  1  13   1
M  END
$$$$
