
     RDKit          3D

 22 23  0  0  0  0  0  0  0  0999 V2000
    5.1907   -5.3185   10.0831 N   0  0  0  0  0  0  0  0  0  0  0  0
    4.5827   -5.0483    9.1148 C   0  0  0  0  0  0  0  0  0  0  0  0
    3.8424   -4.7210    7.9259 C   0  0  0  0  0  0  0  0  0  0  0  0
    3.6002   -5.5089    6.8625 N   0  0  0  0  0  0  0  0  0  0  0  0
    2.8735   -4.8610    5.9388 C   0  0  0  0  0  0  0  0  0  0  0  0
    2.6122   -3.5711    6.4022 C   0  0  0  0  0  0  0  0  0  0  0  0
    3.2205   -3.5113    7.6284 C   0  0  0  0  0  0  0  0  0  0  0  0
    1.8792   -2.6842    5.6448 C   0  0  0  0  0  0  0  0  0  0  0  0
    1.6526   -1.4208    6.1560 O   0  0  0  0  0  0  0  0  0  0  0  0
    0.7572   -0.6007    5.4302 C   0  0  0  0  0  0  0  0  0  0  0  0
    0.6839    0.7982    6.0178 C   0  0  2  0  0  0  0  0  0  0  0  0
    0.1071    0.7748    7.4110 C   0  0  0  0  0  0  0  0  0  0  0  0
   -0.6300    1.9479    7.7452 N   0  0  0  0  0  4  0  0  0  0  0  0
   -1.1125    2.0536    9.0675 C   0  0  0  0  0  0  0  0  0  0  0  0
   -1.7130    3.4330    9.2523 C   0  0  0  0  0  0  0  0  0  0  0  0
   -0.1050    1.8551   10.1549 C   0  0  0  0  0  0  0  0  0  0  0  0
   -2.2236    1.0445    9.2890 C   0  0  0  0  0  0  0  0  0  0  0  0
    0.0014    1.5918    5.1379 O   0  0  0  0  0  0  0  0  0  0  0  0
    1.4030   -3.1055    4.4016 C   0  0  0  0  0  0  0  0  0  0  0  0
    1.6612   -4.3811    3.9432 C   0  0  0  0  0  0  0  0  0  0  0  0
    2.3860   -5.2491    4.6989 C   0  0  0  0  0  0  0  0  0  0  0  0
    2.6731   -6.6239    4.2227 C   0  0  0  0  0  0  0  0  0  0  0  0
  1  2  3  0
  2  3  1  0
  3  4  1  0
  4  5  1  0
  5  6  2  0
  6  7  1  0
  6  8  1  0
  8  9  1  0
  9 10  1  0
 10 11  1  0
 11 12  1  0
 12 13  1  0
 13 14  1  0
 14 15  1  0
 14 16  1  0
 14 17  1  0
 11 18  1  6
  8 19  2  0
 19 20  1  0
 20 21  2  0
 21 22  1  0
  7  3  2  0
 21  5  1  0
M  CHG  1  13   1
M  END
$$$$
