
     RDKit          3D

 22 23  0  0  0  0  0  0  0  0999 V2000
    5.2662   -5.8870    9.7320 N   0  0  0  0  0  0  0  0  0  0  0  0
    4.6254   -5.3851    8.8848 C   0  0  0  0  0  0  0  0  0  0  0  0
    3.8462   -4.7699    7.8442 C   0  0  0  0  0  0  0  0  0  0  0  0
    3.7430   -5.1497    6.5576 N   0  0  0  0  0  0  0  0  0  0  0  0
    2.9227   -4.3328    5.8787 C   0  0  0  0  0  0  0  0  0  0  0  0
    2.4483   -3.3526    6.7511 C   0  0  0  0  0  0  0  0  0  0  0  0
    3.0329   -3.6453    7.9553 C   0  0  0  0  0  0  0  0  0  0  0  0
    1.5813   -2.3766    6.3117 C   0  0  0  0  0  0  0  0  0  0  0  0
    1.1454   -1.4327    7.2215 O   0  0  0  0  0  0  0  0  0  0  0  0
    0.0495   -0.6329    6.8208 C   0  0  0  0  0  0  0  0  0  0  0  0
   -0.5913    0.0668    8.0072 C   0  0  2  0  0  0  0  0  0  0  0  0
    0.0943    1.3771    8.3026 C   0  0  0  0  0  0  0  0  0  0  0  0
   -0.8043    2.4284    8.6472 N   0  0  0  0  0  4  0  0  0  0  0  0
   -0.2418    3.6886    8.9438 C   0  0  0  0  0  0  0  0  0  0  0  0
   -1.2935    4.7537    8.7050 C   0  0  0  0  0  0  0  0  0  0  0  0
    0.9699    4.0719    8.1554 C   0  0  0  0  0  0  0  0  0  0  0  0
    0.1351    3.7479   10.4122 C   0  0  0  0  0  0  0  0  0  0  0  0
   -0.6094   -0.8097    9.0565 O   0  0  0  0  0  0  0  0  0  0  0  0
    1.1873   -2.3902    4.9722 C   0  0  0  0  0  0  0  0  0  0  0  0
    1.6562   -3.3595    4.1093 C   0  0  0  0  0  0  0  0  0  0  0  0
    2.5121   -4.3188    4.5533 C   0  0  0  0  0  0  0  0  0  0  0  0
    3.0259   -5.3685    3.6404 C   0  0  0  0  0  0  0  0  0  0  0  0
  1  2  3  0
  2  3  1  0
  3  4  1  0
  4  5  1  0
  5  6  2  0
  6  7  1  0
  6  8  1  0
  8  9  1  0
  9 10  1  0
 10 11  1  0
 11 12  1  0
 12 13  1  0
 13 14  1  0
 14 15  1  0
 14 16  1  0
 14 17  1  0
 11 18  1  1
  8 19  2  0
 19 20  1  0
 20 21  2  0
 21 22  1  0
  7  3  2  0
 21  5  1  0
M  CHG  1  13   1
M  END
$$$$
