
     RDKit          3D

 22 23  0  0  0  0  0  0  0  0999 V2000
    5.9573   -5.4186    9.4113 N   0  0  0  0  0  0  0  0  0  0  0  0
    5.2166   -5.0568    8.5742 C   0  0  0  0  0  0  0  0  0  0  0  0
    4.3117   -4.6187    7.5457 C   0  0  0  0  0  0  0  0  0  0  0  0
    3.8902   -5.3083    6.4700 N   0  0  0  0  0  0  0  0  0  0  0  0
    3.0471   -4.5741    5.7275 C   0  0  0  0  0  0  0  0  0  0  0  0
    2.8918   -3.3265    6.3326 C   0  0  0  0  0  0  0  0  0  0  0  0
    3.6817   -3.3807    7.4508 C   0  0  0  0  0  0  0  0  0  0  0  0
    2.0738   -2.3687    5.7749 C   0  0  0  0  0  0  0  0  0  0  0  0
    1.9594   -1.1521    6.4195 O   0  0  0  0  0  0  0  0  0  0  0  0
    0.7796   -0.4145    6.1644 C   0  0  0  0  0  0  0  0  0  0  0  0
    0.8511    0.9761    6.7717 C   0  0  2  0  0  0  0  0  0  0  0  0
   -0.4885    1.4020    7.3178 C   0  0  0  0  0  0  0  0  0  0  0  0
   -0.4010    2.3841    8.3470 N   0  0  0  0  0  4  0  0  0  0  0  0
   -1.6123    2.8398    8.9106 C   0  0  0  0  0  0  0  0  0  0  0  0
   -2.3263    1.6587    9.5374 C   0  0  0  0  0  0  0  0  0  0  0  0
   -2.5724    3.4944    7.9691 C   0  0  0  0  0  0  0  0  0  0  0  0
   -1.3191    3.8309   10.0212 C   0  0  0  0  0  0  0  0  0  0  0  0
    1.3722    1.8220    5.8322 O   0  0  0  0  0  0  0  0  0  0  0  0
    1.4029   -2.6747    4.5891 C   0  0  0  0  0  0  0  0  0  0  0  0
    1.5563   -3.9085    3.9906 C   0  0  0  0  0  0  0  0  0  0  0  0
    2.3665   -4.8473    4.5495 C   0  0  0  0  0  0  0  0  0  0  0  0
    2.5432   -6.1786    3.9205 C   0  0  0  0  0  0  0  0  0  0  0  0
  1  2  3  0
  2  3  1  0
  3  4  1  0
  4  5  1  0
  5  6  2  0
  6  7  1  0
  6  8  1  0
  8  9  1  0
  9 10  1  0
 10 11  1  0
 11 12  1  0
 12 13  1  0
 13 14  1  0
 14 15  1  0
 14 16  1  0
 14 17  1  0
 11 18  1  6
  8 19  2  0
 19 20  1  0
 20 21  2  0
 21 22  1  0
  7  3  2  0
 21  5  1  0
M  CHG  1  13   1
M  END
$$$$
