
     RDKit          3D

 22 23  0  0  0  0  0  0  0  0999 V2000
    5.4535   -5.3356    9.8428 N   0  0  0  0  0  0  0  0  0  0  0  0
    4.8277   -5.0664    8.8857 C   0  0  0  0  0  0  0  0  0  0  0  0
    4.0640   -4.7420    7.7110 C   0  0  0  0  0  0  0  0  0  0  0  0
    3.7753   -5.5420    6.6684 N   0  0  0  0  0  0  0  0  0  0  0  0
    3.0396   -4.8929    5.7527 C   0  0  0  0  0  0  0  0  0  0  0  0
    2.8207   -3.5894    6.1999 C   0  0  0  0  0  0  0  0  0  0  0  0
    3.4625   -3.5232    7.4085 C   0  0  0  0  0  0  0  0  0  0  0  0
    2.0886   -2.6985    5.4464 C   0  0  0  0  0  0  0  0  0  0  0  0
    1.9050   -1.4216    5.9409 O   0  0  0  0  0  0  0  0  0  0  0  0
    0.9260   -0.6319    5.2937 C   0  0  0  0  0  0  0  0  0  0  0  0
    1.0152    0.8235    5.7194 C   0  0  2  0  0  0  0  0  0  0  0  0
    0.7167    0.9810    7.1892 C   0  0  0  0  0  0  0  0  0  0  0  0
   -0.6394    1.3220    7.4646 N   0  0  0  0  0  4  0  0  0  0  0  0
   -0.9869    1.5533    8.8130 C   0  0  0  0  0  0  0  0  0  0  0  0
   -0.5960    0.3357    9.6268 C   0  0  0  0  0  0  0  0  0  0  0  0
   -2.4321    1.8270    9.0838 C   0  0  0  0  0  0  0  0  0  0  0  0
   -0.1940    2.7293    9.3513 C   0  0  0  0  0  0  0  0  0  0  0  0
    0.2040    1.5556    4.8974 O   0  0  0  0  0  0  0  0  0  0  0  0
    1.5700   -3.1295    4.2236 C   0  0  0  0  0  0  0  0  0  0  0  0
    1.7863   -4.4185    3.7813 C   0  0  0  0  0  0  0  0  0  0  0  0
    2.5106   -5.2905    4.5330 C   0  0  0  0  0  0  0  0  0  0  0  0
    2.7529   -6.6796    4.0737 C   0  0  0  0  0  0  0  0  0  0  0  0
  1  2  3  0
  2  3  1  0
  3  4  1  0
  4  5  1  0
  5  6  2  0
  6  7  1  0
  6  8  1  0
  8  9  1  0
  9 10  1  0
 10 11  1  0
 11 12  1  0
 12 13  1  0
 13 14  1  0
 14 15  1  0
 14 16  1  0
 14 17  1  0
 11 18  1  6
  8 19  2  0
 19 20  1  0
 20 21  2  0
 21 22  1  0
  7  3  2  0
 21  5  1  0
M  CHG  1  13   1
M  END
$$$$
