
     RDKit          3D

 22 23  0  0  0  0  0  0  0  0999 V2000
    4.5345   -5.4927   10.2579 N   0  0  0  0  0  0  0  0  0  0  0  0
    4.0402   -5.0147    9.3052 C   0  0  0  0  0  0  0  0  0  0  0  0
    3.4305   -4.4340    8.1392 C   0  0  0  0  0  0  0  0  0  0  0  0
    3.4480   -4.9046    6.8789 N   0  0  0  0  0  0  0  0  0  0  0  0
    2.7706   -4.0927    6.0523 C   0  0  0  0  0  0  0  0  0  0  0  0
    2.2709   -3.0204    6.7922 C   0  0  0  0  0  0  0  0  0  0  0  0
    2.6920   -3.2554    8.0746 C   0  0  0  0  0  0  0  0  0  0  0  0
    1.5314   -2.0287    6.1862 C   0  0  0  0  0  0  0  0  0  0  0  0
    1.0629   -0.9921    6.9701 O   0  0  0  0  0  0  0  0  0  0  0  0
    0.5382    0.1276    6.2832 C   0  0  0  0  0  0  0  0  0  0  0  0
   -0.3977    0.9339    7.1673 C   0  0  2  0  0  0  0  0  0  0  0  0
    0.3278    1.4854    8.3689 C   0  0  0  0  0  0  0  0  0  0  0  0
   -0.2047    2.7198    8.8423 N   0  0  0  0  0  4  0  0  0  0  0  0
    0.4458    3.3268    9.9381 C   0  0  0  0  0  0  0  0  0  0  0  0
    0.2202    2.4691   11.1675 C   0  0  0  0  0  0  0  0  0  0  0  0
    0.0096    4.7167   10.2764 C   0  0  0  0  0  0  0  0  0  0  0  0
    1.9412    3.3693    9.6860 C   0  0  0  0  0  0  0  0  0  0  0  0
   -1.4752    0.1486    7.4703 O   0  0  0  0  0  0  0  0  0  0  0  0
    1.2927   -2.1209    4.8135 C   0  0  0  0  0  0  0  0  0  0  0  0
    1.7867   -3.1813    4.0817 C   0  0  0  0  0  0  0  0  0  0  0  0
    2.5159   -4.1552    4.6897 C   0  0  0  0  0  0  0  0  0  0  0  0
    3.0545   -5.3023    3.9193 C   0  0  0  0  0  0  0  0  0  0  0  0
  1  2  3  0
  2  3  1  0
  3  4  1  0
  4  5  1  0
  5  6  2  0
  6  7  1  0
  6  8  1  0
  8  9  1  0
  9 10  1  0
 10 11  1  0
 11 12  1  0
 12 13  1  0
 13 14  1  0
 14 15  1  0
 14 16  1  0
 14 17  1  0
 11 18  1  1
  8 19  2  0
 19 20  1  0
 20 21  2  0
 21 22  1  0
  7  3  2  0
 21  5  1  0
M  CHG  1  13   1
M  END
$$$$
