
     RDKit          3D

 22 23  0  0  0  0  0  0  0  0999 V2000
    4.4211   -5.1650   10.4605 N   0  0  0  0  0  0  0  0  0  0  0  0
    3.9495   -4.9043    9.4166 C   0  0  0  0  0  0  0  0  0  0  0  0
    3.3734   -4.5790    8.1395 C   0  0  0  0  0  0  0  0  0  0  0  0
    3.2723   -5.3695    7.0555 N   0  0  0  0  0  0  0  0  0  0  0  0
    2.6752   -4.7229    6.0422 C   0  0  0  0  0  0  0  0  0  0  0  0
    2.3574   -3.4313    6.4638 C   0  0  0  0  0  0  0  0  0  0  0  0
    2.7985   -3.3692    7.7595 C   0  0  0  0  0  0  0  0  0  0  0  0
    1.7326   -2.5453    5.6140 C   0  0  0  0  0  0  0  0  0  0  0  0
    1.4428   -1.2803    6.0877 O   0  0  0  0  0  0  0  0  0  0  0  0
    1.2256   -0.2788    5.1125 C   0  0  0  0  0  0  0  0  0  0  0  0
    0.6103    0.9683    5.7238 C   0  0  2  0  0  0  0  0  0  0  0  0
    0.4831    0.8359    7.2206 C   0  0  0  0  0  0  0  0  0  0  0  0
   -0.1041    1.9729    7.8481 N   0  0  0  0  0  4  0  0  0  0  0  0
   -0.1908    1.9612    9.2569 C   0  0  0  0  0  0  0  0  0  0  0  0
   -1.2374    0.9442    9.6666 C   0  0  0  0  0  0  0  0  0  0  0  0
   -0.5506    3.2596    9.9062 C   0  0  0  0  0  0  0  0  0  0  0  0
    1.1320    1.5102    9.8473 C   0  0  0  0  0  0  0  0  0  0  0  0
   -0.5681    1.2195    5.0774 O   0  0  0  0  0  0  0  0  0  0  0  0
    1.4240   -2.9692    4.3198 C   0  0  0  0  0  0  0  0  0  0  0  0
    1.7381   -4.2465    3.9028 C   0  0  0  0  0  0  0  0  0  0  0  0
    2.3551   -5.1136    4.7498 C   0  0  0  0  0  0  0  0  0  0  0  0
    2.6999   -6.4901    4.3190 C   0  0  0  0  0  0  0  0  0  0  0  0
  1  2  3  0
  2  3  1  0
  3  4  1  0
  4  5  1  0
  5  6  2  0
  6  7  1  0
  6  8  1  0
  8  9  1  0
  9 10  1  0
 10 11  1  0
 11 12  1  0
 12 13  1  0
 13 14  1  0
 14 15  1  0
 14 16  1  0
 14 17  1  0
 11 18  1  6
  8 19  2  0
 19 20  1  0
 20 21  2  0
 21 22  1  0
  7  3  2  0
 21  5  1  0
M  CHG  1  13   1
M  END
$$$$
