
     RDKit          3D

 22 23  0  0  0  0  0  0  0  0999 V2000
    5.1138   -6.3534    9.6481 N   0  0  0  0  0  0  0  0  0  0  0  0
    4.4612   -5.7531    8.8774 C   0  0  0  0  0  0  0  0  0  0  0  0
    3.6641   -5.0222    7.9292 C   0  0  0  0  0  0  0  0  0  0  0  0
    3.4332   -5.3257    6.6389 N   0  0  0  0  0  0  0  0  0  0  0  0
    2.6397   -4.4091    6.0633 C   0  0  0  0  0  0  0  0  0  0  0  0
    2.3190   -3.4384    7.0129 C   0  0  0  0  0  0  0  0  0  0  0  0
    2.9630   -3.8403    8.1534 C   0  0  0  0  0  0  0  0  0  0  0  0
    1.5108   -2.3717    6.6864 C   0  0  0  0  0  0  0  0  0  0  0  0
    1.2279   -1.4423    7.6687 O   0  0  0  0  0  0  0  0  0  0  0  0
    0.6902   -0.2093    7.2308 C   0  0  0  0  0  0  0  0  0  0  0  0
    0.4969    0.7553    8.3882 C   0  0  2  0  0  0  0  0  0  0  0  0
   -0.4059    1.8990    7.9998 C   0  0  0  0  0  0  0  0  0  0  0  0
   -0.7516    2.7508    9.0889 N   0  0  0  0  0  4  0  0  0  0  0  0
   -1.6069    3.8392    8.8124 C   0  0  0  0  0  0  0  0  0  0  0  0
   -2.7174    3.3591    7.8993 C   0  0  0  0  0  0  0  0  0  0  0  0
   -0.9733    5.0265    8.1600 C   0  0  0  0  0  0  0  0  0  0  0  0
   -2.2553    4.3198   10.0971 C   0  0  0  0  0  0  0  0  0  0  0  0
    1.7326    1.1375    8.8317 O   0  0  0  0  0  0  0  0  0  0  0  0
    1.0192   -2.2837    5.3825 C   0  0  0  0  0  0  0  0  0  0  0  0
    1.3361   -3.2436    4.4433 C   0  0  0  0  0  0  0  0  0  0  0  0
    2.1350   -4.2929    4.7759 C   0  0  0  0  0  0  0  0  0  0  0  0
    2.4859   -5.3341    3.7799 C   0  0  0  0  0  0  0  0  0  0  0  0
  1  2  3  0
  2  3  1  0
  3  4  1  0
  4  5  1  0
  5  6  2  0
  6  7  1  0
  6  8  1  0
  8  9  1  0
  9 10  1  0
 10 11  1  0
 11 12  1  0
 12 13  1  0
 13 14  1  0
 14 15  1  0
 14 16  1  0
 14 17  1  0
 11 18  1  6
  8 19  2  0
 19 20  1  0
 20 21  2  0
 21 22  1  0
  7  3  2  0
 21  5  1  0
M  CHG  1  13   1
M  END
$$$$
