
     RDKit          3D

 22 23  0  0  0  0  0  0  0  0999 V2000
    4.4379   -5.1280   10.2029 N   0  0  0  0  0  0  0  0  0  0  0  0
    3.9530   -4.8239    9.1769 C   0  0  0  0  0  0  0  0  0  0  0  0
    3.3588   -4.4457    7.9230 C   0  0  0  0  0  0  0  0  0  0  0  0
    3.3657   -5.1336    6.7667 N   0  0  0  0  0  0  0  0  0  0  0  0
    2.7093   -4.4658    5.8052 C   0  0  0  0  0  0  0  0  0  0  0  0
    2.2356   -3.2671    6.3396 C   0  0  0  0  0  0  0  0  0  0  0  0
    2.6497   -3.2800    7.6456 C   0  0  0  0  0  0  0  0  0  0  0  0
    1.5213   -2.3818    5.5629 C   0  0  0  0  0  0  0  0  0  0  0  0
    1.0779   -1.2110    6.1472 O   0  0  0  0  0  0  0  0  0  0  0  0
    1.3989   -0.0106    5.4712 C   0  0  0  0  0  0  0  0  0  0  0  0
    0.5083    1.1353    5.9197 C   0  0  2  0  0  0  0  0  0  0  0  0
    0.3918    1.1793    7.4225 C   0  0  0  0  0  0  0  0  0  0  0  0
   -0.1562    2.3978    7.9189 N   0  0  0  0  0  4  0  0  0  0  0  0
   -0.3189    2.5116    9.3164 C   0  0  0  0  0  0  0  0  0  0  0  0
   -1.1968    1.3717    9.7935 C   0  0  0  0  0  0  0  0  0  0  0  0
   -0.9324    3.7842    9.8072 C   0  0  0  0  0  0  0  0  0  0  0  0
    1.0262    2.3626   10.0021 C   0  0  0  0  0  0  0  0  0  0  0  0
   -0.6866    1.0245    5.2642 O   0  0  0  0  0  0  0  0  0  0  0  0
    1.2816   -2.7112    4.2272 C   0  0  0  0  0  0  0  0  0  0  0  0
    1.7499   -3.8967    3.6987 C   0  0  0  0  0  0  0  0  0  0  0  0
    2.4542   -4.7640    4.4742 C   0  0  0  0  0  0  0  0  0  0  0  0
    2.9650   -6.0426    3.9233 C   0  0  0  0  0  0  0  0  0  0  0  0
  1  2  3  0
  2  3  1  0
  3  4  1  0
  4  5  1  0
  5  6  2  0
  6  7  1  0
  6  8  1  0
  8  9  1  0
  9 10  1  0
 10 11  1  0
 11 12  1  0
 12 13  1  0
 13 14  1  0
 14 15  1  0
 14 16  1  0
 14 17  1  0
 11 18  1  6
  8 19  2  0
 19 20  1  0
 20 21  2  0
 21 22  1  0
  7  3  2  0
 21  5  1  0
M  CHG  1  13   1
M  END
$$$$
