
     RDKit          3D

 22 23  0  0  0  0  0  0  0  0999 V2000
    5.0983   -4.9749    9.9785 N   0  0  0  0  0  0  0  0  0  0  0  0
    4.5281   -4.7503    8.9762 C   0  0  0  0  0  0  0  0  0  0  0  0
    3.8292   -4.4693    7.7510 C   0  0  0  0  0  0  0  0  0  0  0  0
    3.6401   -5.2912    6.7027 N   0  0  0  0  0  0  0  0  0  0  0  0
    2.9397   -4.6819    5.7334 C   0  0  0  0  0  0  0  0  0  0  0  0
    2.6411   -3.3837    6.1487 C   0  0  0  0  0  0  0  0  0  0  0  0
    3.2008   -3.2790    7.3949 C   0  0  0  0  0  0  0  0  0  0  0  0
    1.9244   -2.5310    5.3384 C   0  0  0  0  0  0  0  0  0  0  0  0
    1.6590   -1.2574    5.8034 O   0  0  0  0  0  0  0  0  0  0  0  0
    0.5968   -0.5672    5.1737 C   0  0  0  0  0  0  0  0  0  0  0  0
    0.5073    0.8716    5.6528 C   0  0  2  0  0  0  0  0  0  0  0  0
    0.1823    0.9371    7.1239 C   0  0  0  0  0  0  0  0  0  0  0  0
   -0.8805    1.8339    7.4359 N   0  0  0  0  0  4  0  0  0  0  0  0
   -1.1717    2.0413    8.8015 C   0  0  0  0  0  0  0  0  0  0  0  0
   -1.9528    3.3333    8.9366 C   0  0  0  0  0  0  0  0  0  0  0  0
    0.0050    2.1320    9.7202 C   0  0  0  0  0  0  0  0  0  0  0  0
   -2.0598    0.9218    9.3111 C   0  0  0  0  0  0  0  0  0  0  0  0
   -0.3807    1.5310    4.8489 O   0  0  0  0  0  0  0  0  0  0  0  0
    1.5029   -2.9954    4.0908 C   0  0  0  0  0  0  0  0  0  0  0  0
    1.7980   -4.2792    3.6800 C   0  0  0  0  0  0  0  0  0  0  0  0
    2.5063   -5.1133    4.4878 C   0  0  0  0  0  0  0  0  0  0  0  0
    2.8324   -6.4963    4.0631 C   0  0  0  0  0  0  0  0  0  0  0  0
  1  2  3  0
  2  3  1  0
  3  4  1  0
  4  5  1  0
  5  6  2  0
  6  7  1  0
  6  8  1  0
  8  9  1  0
  9 10  1  0
 10 11  1  0
 11 12  1  0
 12 13  1  0
 13 14  1  0
 14 15  1  0
 14 16  1  0
 14 17  1  0
 11 18  1  6
  8 19  2  0
 19 20  1  0
 20 21  2  0
 21 22  1  0
  7  3  2  0
 21  5  1  0
M  CHG  1  13   1
M  END
$$$$
