
     RDKit          3D

 22 23  0  0  0  0  0  0  0  0999 V2000
    5.1801   -5.2162    9.7810 N   0  0  0  0  0  0  0  0  0  0  0  0
    4.5865   -4.9657    8.7986 C   0  0  0  0  0  0  0  0  0  0  0  0
    3.8645   -4.6550    7.5941 C   0  0  0  0  0  0  0  0  0  0  0  0
    3.6401   -5.4571    6.5374 N   0  0  0  0  0  0  0  0  0  0  0  0
    2.9270   -4.8224    5.5941 C   0  0  0  0  0  0  0  0  0  0  0  0
    2.6565   -3.5270    6.0365 C   0  0  0  0  0  0  0  0  0  0  0  0
    3.2454   -3.4504    7.2712 C   0  0  0  0  0  0  0  0  0  0  0  0
    1.9342   -2.6513    5.2563 C   0  0  0  0  0  0  0  0  0  0  0  0
    1.6976   -1.3819    5.7474 O   0  0  0  0  0  0  0  0  0  0  0  0
    0.7123   -0.6215    5.0751 C   0  0  0  0  0  0  0  0  0  0  0  0
    0.6372    0.7954    5.6176 C   0  0  2  0  0  0  0  0  0  0  0  0
    0.2233    0.8027    7.0677 C   0  0  0  0  0  0  0  0  0  0  0  0
   -0.8116    1.7371    7.3630 N   0  0  0  0  0  4  0  0  0  0  0  0
   -1.1981    1.8684    8.7142 C   0  0  0  0  0  0  0  0  0  0  0  0
   -2.7122    1.8874    8.7825 C   0  0  0  0  0  0  0  0  0  0  0  0
   -0.7030    3.0869    9.4261 C   0  0  0  0  0  0  0  0  0  0  0  0
   -0.7261    0.6602    9.5012 C   0  0  0  0  0  0  0  0  0  0  0  0
   -0.1784    1.5212    4.7945 O   0  0  0  0  0  0  0  0  0  0  0  0
    1.4782   -3.0895    4.0113 C   0  0  0  0  0  0  0  0  0  0  0  0
    1.7455   -4.3705    3.5737 C   0  0  0  0  0  0  0  0  0  0  0  0
    2.4597   -5.2274    4.3518 C   0  0  0  0  0  0  0  0  0  0  0  0
    2.7563   -6.6077    3.8980 C   0  0  0  0  0  0  0  0  0  0  0  0
  1  2  3  0
  2  3  1  0
  3  4  1  0
  4  5  1  0
  5  6  2  0
  6  7  1  0
  6  8  1  0
  8  9  1  0
  9 10  1  0
 10 11  1  0
 11 12  1  0
 12 13  1  0
 13 14  1  0
 14 15  1  0
 14 16  1  0
 14 17  1  0
 11 18  1  6
  8 19  2  0
 19 20  1  0
 20 21  2  0
 21 22  1  0
  7  3  2  0
 21  5  1  0
M  CHG  1  13   1
M  END
$$$$
