
     RDKit          3D

 22 23  0  0  0  0  0  0  0  0999 V2000
    5.3615   -5.3699    9.6874 N   0  0  0  0  0  0  0  0  0  0  0  0
    4.6525   -5.0663    8.8012 C   0  0  0  0  0  0  0  0  0  0  0  0
    3.7866   -4.6998    7.7129 C   0  0  0  0  0  0  0  0  0  0  0  0
    3.3553   -5.4788    6.7042 N   0  0  0  0  0  0  0  0  0  0  0  0
    2.5588   -4.7909    5.8713 C   0  0  0  0  0  0  0  0  0  0  0  0
    2.4470   -3.4820    6.3416 C   0  0  0  0  0  0  0  0  0  0  0  0
    3.2131   -3.4531    7.4772 C   0  0  0  0  0  0  0  0  0  0  0  0
    1.6821   -2.5539    5.6702 C   0  0  0  0  0  0  0  0  0  0  0  0
    1.6091   -1.2734    6.1839 O   0  0  0  0  0  0  0  0  0  0  0  0
    0.3206   -0.6926    6.2427 C   0  0  0  0  0  0  0  0  0  0  0  0
    0.3706    0.7148    6.8123 C   0  0  2  0  0  0  0  0  0  0  0  0
   -0.7188    0.9290    7.8328 C   0  0  0  0  0  0  0  0  0  0  0  0
   -0.8994    2.2944    8.1993 N   0  0  0  0  0  4  0  0  0  0  0  0
   -1.8460    2.5731    9.2086 C   0  0  0  0  0  0  0  0  0  0  0  0
   -1.4724    1.7873   10.4497 C   0  0  0  0  0  0  0  0  0  0  0  0
   -3.2696    2.2482    8.8853 C   0  0  0  0  0  0  0  0  0  0  0  0
   -1.7881    4.0449    9.5721 C   0  0  0  0  0  0  0  0  0  0  0  0
    0.3455    1.5958    5.7668 O   0  0  0  0  0  0  0  0  0  0  0  0
    1.0203   -2.9527    4.5071 C   0  0  0  0  0  0  0  0  0  0  0  0
    1.1307   -4.2471    4.0419 C   0  0  0  0  0  0  0  0  0  0  0  0
    1.8886   -5.1559    4.7124 C   0  0  0  0  0  0  0  0  0  0  0  0
    2.0185   -6.5513    4.2274 C   0  0  0  0  0  0  0  0  0  0  0  0
  1  2  3  0
  2  3  1  0
  3  4  1  0
  4  5  1  0
  5  6  2  0
  6  7  1  0
  6  8  1  0
  8  9  1  0
  9 10  1  0
 10 11  1  0
 11 12  1  0
 12 13  1  0
 13 14  1  0
 14 15  1  0
 14 16  1  0
 14 17  1  0
 11 18  1  6
  8 19  2  0
 19 20  1  0
 20 21  2  0
 21 22  1  0
  7  3  2  0
 21  5  1  0
M  CHG  1  13   1
M  END
$$$$
