
     RDKit          3D

 22 23  0  0  0  0  0  0  0  0999 V2000
    5.1196   -5.2128   10.1711 N   0  0  0  0  0  0  0  0  0  0  0  0
    4.5596   -4.9696    9.1674 C   0  0  0  0  0  0  0  0  0  0  0  0
    3.8689   -4.6701    7.9420 C   0  0  0  0  0  0  0  0  0  0  0  0
    3.6749   -5.4806    6.8857 N   0  0  0  0  0  0  0  0  0  0  0  0
    2.9853   -4.8551    5.9191 C   0  0  0  0  0  0  0  0  0  0  0  0
    2.6994   -3.5574    6.3446 C   0  0  0  0  0  0  0  0  0  0  0  0
    3.2551   -3.4698    7.5939 C   0  0  0  0  0  0  0  0  0  0  0  0
    1.9954   -2.6896    5.5390 C   0  0  0  0  0  0  0  0  0  0  0  0
    1.7423   -1.4174    6.0142 O   0  0  0  0  0  0  0  0  0  0  0  0
    0.9913   -0.5684    5.1678 C   0  0  0  0  0  0  0  0  0  0  0  0
    0.8030    0.8068    5.7851 C   0  0  2  0  0  0  0  0  0  0  0  0
    0.2397    0.7056    7.1803 C   0  0  0  0  0  0  0  0  0  0  0  0
   -0.4410    1.8819    7.6095 N   0  0  0  0  0  4  0  0  0  0  0  0
   -0.9035    1.9112    8.9429 C   0  0  0  0  0  0  0  0  0  0  0  0
   -1.3191    3.3300    9.2774 C   0  0  0  0  0  0  0  0  0  0  0  0
    0.0714    1.4724    9.9887 C   0  0  0  0  0  0  0  0  0  0  0  0
   -2.1360    1.0367    9.0763 C   0  0  0  0  0  0  0  0  0  0  0  0
    0.0495    1.5571    4.9255 O   0  0  0  0  0  0  0  0  0  0  0  0
    1.5739   -3.1384    4.2857 C   0  0  0  0  0  0  0  0  0  0  0  0
    1.8565   -4.4218    3.8648 C   0  0  0  0  0  0  0  0  0  0  0  0
    2.5523   -5.2707    4.6680 C   0  0  0  0  0  0  0  0  0  0  0  0
    2.8648   -6.6534    4.2324 C   0  0  0  0  0  0  0  0  0  0  0  0
  1  2  3  0
  2  3  1  0
  3  4  1  0
  4  5  1  0
  5  6  2  0
  6  7  1  0
  6  8  1  0
  8  9  1  0
  9 10  1  0
 10 11  1  0
 11 12  1  0
 12 13  1  0
 13 14  1  0
 14 15  1  0
 14 16  1  0
 14 17  1  0
 11 18  1  6
  8 19  2  0
 19 20  1  0
 20 21  2  0
 21 22  1  0
  7  3  2  0
 21  5  1  0
M  CHG  1  13   1
M  END
$$$$
