
     RDKit          3D

 22 23  0  0  0  0  0  0  0  0999 V2000
    5.1844   -5.0938   10.0593 N   0  0  0  0  0  0  0  0  0  0  0  0
    4.5668   -4.8489    9.0904 C   0  0  0  0  0  0  0  0  0  0  0  0
    3.8153   -4.5453    7.9022 C   0  0  0  0  0  0  0  0  0  0  0  0
    3.6067   -5.3364    6.8341 N   0  0  0  0  0  0  0  0  0  0  0  0
    2.8554   -4.7134    5.9129 C   0  0  0  0  0  0  0  0  0  0  0  0
    2.5411   -3.4378    6.3831 C   0  0  0  0  0  0  0  0  0  0  0  0
    3.1449   -3.3603    7.6106 C   0  0  0  0  0  0  0  0  0  0  0  0
    1.7736   -2.5773    5.6296 C   0  0  0  0  0  0  0  0  0  0  0  0
    1.4950   -1.3272    6.1476 O   0  0  0  0  0  0  0  0  0  0  0  0
    0.7437   -0.4582    5.3220 C   0  0  0  0  0  0  0  0  0  0  0  0
    0.7018    0.9501    5.8898 C   0  0  2  0  0  0  0  0  0  0  0  0
    0.1379    0.9575    7.2884 C   0  0  0  0  0  0  0  0  0  0  0  0
   -0.5836    2.1442    7.6084 N   0  0  0  0  0  4  0  0  0  0  0  0
   -1.1108    2.2483    8.9137 C   0  0  0  0  0  0  0  0  0  0  0  0
    0.0389    2.2202    9.9011 C   0  0  0  0  0  0  0  0  0  0  0  0
   -2.0768    1.1819    9.3216 C   0  0  0  0  0  0  0  0  0  0  0  0
   -1.8132    3.5831    9.0770 C   0  0  0  0  0  0  0  0  0  0  0  0
    0.0259    1.7435    5.0047 O   0  0  0  0  0  0  0  0  0  0  0  0
    1.3166   -3.0106    4.3833 C   0  0  0  0  0  0  0  0  0  0  0  0
    1.6272   -4.2720    3.9182 C   0  0  0  0  0  0  0  0  0  0  0  0
    2.3859   -5.1140    4.6701 C   0  0  0  0  0  0  0  0  0  0  0  0
    2.7293   -6.4732    4.1866 C   0  0  0  0  0  0  0  0  0  0  0  0
  1  2  3  0
  2  3  1  0
  3  4  1  0
  4  5  1  0
  5  6  2  0
  6  7  1  0
  6  8  1  0
  8  9  1  0
  9 10  1  0
 10 11  1  0
 11 12  1  0
 12 13  1  0
 13 14  1  0
 14 15  1  0
 14 16  1  0
 14 17  1  0
 11 18  1  6
  8 19  2  0
 19 20  1  0
 20 21  2  0
 21 22  1  0
  7  3  2  0
 21  5  1  0
M  CHG  1  13   1
M  END
$$$$
