
     RDKit          3D

 22 23  0  0  0  0  0  0  0  0999 V2000
    4.9812   -5.1935   10.1685 N   0  0  0  0  0  0  0  0  0  0  0  0
    4.4226   -4.9230    9.1710 C   0  0  0  0  0  0  0  0  0  0  0  0
    3.7435   -4.5942    7.9465 C   0  0  0  0  0  0  0  0  0  0  0  0
    3.5344   -5.3885    6.8809 N   0  0  0  0  0  0  0  0  0  0  0  0
    2.8632   -4.7366    5.9188 C   0  0  0  0  0  0  0  0  0  0  0  0
    2.6064   -3.4371    6.3573 C   0  0  0  0  0  0  0  0  0  0  0  0
    3.1595   -3.3760    7.6093 C   0  0  0  0  0  0  0  0  0  0  0  0
    1.9260   -2.5444    5.5587 C   0  0  0  0  0  0  0  0  0  0  0  0
    1.7012   -1.2716    6.0468 O   0  0  0  0  0  0  0  0  0  0  0  0
    0.6395   -0.5495    5.4532 C   0  0  0  0  0  0  0  0  0  0  0  0
    0.5841    0.8795    5.9657 C   0  0  2  0  0  0  0  0  0  0  0  0
    0.0688    0.9311    7.3820 C   0  0  0  0  0  0  0  0  0  0  0  0
   -0.5648    2.1632    7.7161 N   0  0  0  0  0  4  0  0  0  0  0  0
   -1.0519    2.3035    9.0335 C   0  0  0  0  0  0  0  0  0  0  0  0
    0.1307    2.4222    9.9741 C   0  0  0  0  0  0  0  0  0  0  0  0
   -1.9155    1.1920    9.5389 C   0  0  0  0  0  0  0  0  0  0  0  0
   -1.8514    3.5876    9.1495 C   0  0  0  0  0  0  0  0  0  0  0  0
   -0.1405    1.6211    5.0743 O   0  0  0  0  0  0  0  0  0  0  0  0
    1.4986   -2.9696    4.2992 C   0  0  0  0  0  0  0  0  0  0  0  0
    1.7523   -4.2547    3.8655 C   0  0  0  0  0  0  0  0  0  0  0  0
    2.4250   -5.1284    4.6618 C   0  0  0  0  0  0  0  0  0  0  0  0
    2.7064   -6.5133    4.2124 C   0  0  0  0  0  0  0  0  0  0  0  0
  1  2  3  0
  2  3  1  0
  3  4  1  0
  4  5  1  0
  5  6  2  0
  6  7  1  0
  6  8  1  0
  8  9  1  0
  9 10  1  0
 10 11  1  0
 11 12  1  0
 12 13  1  0
 13 14  1  0
 14 15  1  0
 14 16  1  0
 14 17  1  0
 11 18  1  6
  8 19  2  0
 19 20  1  0
 20 21  2  0
 21 22  1  0
  7  3  2  0
 21  5  1  0
M  CHG  1  13   1
M  END
$$$$
