
     RDKit          3D

 22 23  0  0  0  0  0  0  0  0999 V2000
    4.9969   -5.6562    9.8832 N   0  0  0  0  0  0  0  0  0  0  0  0
    4.4460   -5.1707    8.9661 C   0  0  0  0  0  0  0  0  0  0  0  0
    3.7753   -4.5715    7.8438 C   0  0  0  0  0  0  0  0  0  0  0  0
    3.7512   -5.0051    6.5703 N   0  0  0  0  0  0  0  0  0  0  0  0
    3.0218   -4.1862    5.7966 C   0  0  0  0  0  0  0  0  0  0  0  0
    2.5289   -3.1479    6.5878 C   0  0  0  0  0  0  0  0  0  0  0  0
    3.0081   -3.4096    7.8444 C   0  0  0  0  0  0  0  0  0  0  0  0
    1.7425   -2.1573    6.0423 C   0  0  0  0  0  0  0  0  0  0  0  0
    1.2834   -1.1552    6.8752 O   0  0  0  0  0  0  0  0  0  0  0  0
    0.5161   -0.1345    6.2664 C   0  0  0  0  0  0  0  0  0  0  0  0
   -0.3951    0.5501    7.2707 C   0  0  2  0  0  0  0  0  0  0  0  0
    0.3623    1.5629    8.0922 C   0  0  0  0  0  0  0  0  0  0  0  0
   -0.4749    2.5237    8.7303 N   0  0  0  0  0  4  0  0  0  0  0  0
    0.1603    3.5543    9.4561 C   0  0  0  0  0  0  0  0  0  0  0  0
   -0.8725    4.6099    9.7978 C   0  0  0  0  0  0  0  0  0  0  0  0
    1.2938    4.2444    8.7665 C   0  0  0  0  0  0  0  0  0  0  0  0
    0.6935    3.0043   10.7657 C   0  0  0  0  0  0  0  0  0  0  0  0
   -1.0191   -0.4195    8.0057 O   0  0  0  0  0  0  0  0  0  0  0  0
    1.4492   -2.2155    4.6783 C   0  0  0  0  0  0  0  0  0  0  0  0
    1.9365   -3.2423    3.8958 C   0  0  0  0  0  0  0  0  0  0  0  0
    2.7122   -4.2156    4.4443 C   0  0  0  0  0  0  0  0  0  0  0  0
    3.2444   -5.3267    3.6188 C   0  0  0  0  0  0  0  0  0  0  0  0
  1  2  3  0
  2  3  1  0
  3  4  1  0
  4  5  1  0
  5  6  2  0
  6  7  1  0
  6  8  1  0
  8  9  1  0
  9 10  1  0
 10 11  1  0
 11 12  1  0
 12 13  1  0
 13 14  1  0
 14 15  1  0
 14 16  1  0
 14 17  1  0
 11 18  1  1
  8 19  2  0
 19 20  1  0
 20 21  2  0
 21 22  1  0
  7  3  2  0
 21  5  1  0
M  CHG  1  13   1
M  END
$$$$
