
     RDKit          3D

 33 35  0  0  0  0  0  0  0  0999 V2000
   -3.4057    6.7683   11.7625 C   0  0  0  0  0  0  0  0  0  0  0  0
   -3.0774    5.7482   10.2764 S   0  0  0  0  0  0  0  0  0  0  0  0
   -3.8791    4.1751   10.5551 C   0  0  0  0  0  0  0  0  0  0  0  0
   -4.4974    3.8783   11.7103 N   0  0  0  0  0  0  0  0  0  0  0  0
   -5.0967    2.6895   11.9054 C   0  0  0  0  0  0  0  0  0  0  0  0
   -5.7493    2.3830   13.1315 N   0  0  0  0  0  0  0  0  0  0  0  0
   -5.0493    1.7841   10.8642 C   0  0  0  0  0  0  0  0  0  0  0  0
   -4.4216    2.0611    9.6667 C   0  0  0  0  0  0  0  0  0  0  0  0
   -3.8440    3.2790    9.5526 N   0  0  0  0  0  0  0  0  0  0  0  0
   -4.5236    1.0115    8.8304 N   0  0  0  0  0  0  0  0  0  0  0  0
   -5.2088    0.0722    9.4842 C   0  0  0  0  0  0  0  0  0  0  0  0
   -5.5326    0.5231   10.7113 N   0  0  0  0  0  0  0  0  0  0  0  0
   -3.9688    0.9951    7.5043 C   0  0  2  0  0  0  0  0  0  0  0  0
   -3.0001    0.0508    7.3045 O   0  0  0  0  0  0  0  0  0  0  0  0
   -2.1942    0.4435    6.2685 C   0  0  1  0  0  0  0  0  0  0  0  0
   -2.5267    1.8716    5.9240 C   0  0  2  0  0  0  0  0  0  0  0  0
   -3.2666    2.3137    7.1708 C   0  0  1  0  0  0  0  0  0  0  0  0
   -4.1498    3.3348    6.9302 O   0  0  0  0  0  0  0  0  0  0  0  0
   -3.4564    1.8641    4.8840 O   0  0  0  0  0  0  0  0  0  0  0  0
   -0.7674    0.3805    6.6989 C   0  0  0  0  0  0  0  0  0  0  0  0
   -0.6045    0.5156    8.0754 O   0  0  0  0  0  0  0  0  0  0  0  0
    0.9950    0.4380    8.5438 P   0  0  1  0  0  5  0  0  0  0  0  0
    1.6235    1.7820    8.7736 O   0  0  0  0  0  0  0  0  0  0  0  0
    1.0839   -0.5477    9.9304 O   0  0  0  0  0  0  0  0  0  0  0  0
    1.9652    0.3188   11.0917 P   0  0  2  0  0  5  0  0  0  0  0  0
    2.8309   -0.6151   11.9141 O   0  0  0  0  0  0  0  0  0  0  0  0
    0.8431    1.1295   12.0810 O   0  0  0  0  0  0  0  0  0  0  0  0
    0.1504   -0.0439   13.0959 P   0  0  0  0  0  5  0  0  0  0  0  0
   -0.0781   -1.3377   12.3399 O   0  0  0  0  0  0  0  0  0  0  0  0
   -1.2969    0.5460   13.7489 O   0  0  0  0  0  1  0  0  0  0  0  0
    1.1787   -0.3990   14.4047 O   0  0  0  0  0  1  0  0  0  0  0  0
    2.9438    1.4417   10.2652 O   0  0  0  0  0  1  0  0  0  0  0  0
    1.8748   -0.3245    7.3079 O   0  0  0  0  0  1  0  0  0  0  0  0
  1  2  1  0
  2  3  1  0
  3  4  2  0
  4  5  1  0
  5  6  1  0
  5  7  2  0
  7  8  1  0
  8  9  2  0
  8 10  1  0
 10 11  1  0
 11 12  2  0
 13 10  1  1
 13 14  1  0
 14 15  1  0
 15 16  1  0
 16 17  1  0
 17 18  1  6
 16 19  1  6
 15 20  1  1
 20 21  1  0
 21 22  1  0
 22 23  2  0
 22 24  1  0
 24 25  1  0
 25 26  2  0
 25 27  1  0
 27 28  1  0
 28 29  2  0
 28 30  1  0
 28 31  1  0
 25 32  1  6
 22 33  1  6
  9  3  1  0
 17 13  1  0
 12  7  1  0
M  CHG  4  30  -1  31  -1  32  -1  33  -1
M  END
$$$$
