
     RDKit          3D

 33 35  0  0  0  0  0  0  0  0999 V2000
   -5.6937    1.1474    4.7505 C   0  0  0  0  0  0  0  0  0  0  0  0
   -6.8904    2.1388    5.7210 S   0  0  0  0  0  0  0  0  0  0  0  0
   -6.0213    2.6949    7.1805 C   0  0  0  0  0  0  0  0  0  0  0  0
   -6.6152    3.4332    8.1329 N   0  0  0  0  0  0  0  0  0  0  0  0
   -5.9477    3.8446    9.2264 C   0  0  0  0  0  0  0  0  0  0  0  0
   -6.5839    4.6261   10.2303 N   0  0  0  0  0  0  0  0  0  0  0  0
   -4.6215    3.4745    9.3287 C   0  0  0  0  0  0  0  0  0  0  0  0
   -3.9853    2.7169    8.3665 C   0  0  0  0  0  0  0  0  0  0  0  0
   -4.7280    2.3447    7.2989 N   0  0  0  0  0  0  0  0  0  0  0  0
   -2.7027    2.5008    8.7128 N   0  0  0  0  0  0  0  0  0  0  0  0
   -2.5187    3.1128    9.8835 C   0  0  0  0  0  0  0  0  0  0  0  0
   -3.6662    3.7042   10.2677 N   0  0  0  0  0  0  0  0  0  0  0  0
   -1.7801    1.7434    7.9117 C   0  0  2  0  0  0  0  0  0  0  0  0
   -1.1454    0.7319    8.5781 O   0  0  0  0  0  0  0  0  0  0  0  0
    0.0343    0.4443    7.9436 C   0  0  1  0  0  0  0  0  0  0  0  0
    0.2959    1.5173    6.9193 C   0  0  2  0  0  0  0  0  0  0  0  0
   -0.6331    2.6161    7.3959 C   0  0  1  0  0  0  0  0  0  0  0  0
   -1.0240    3.4566    6.3854 O   0  0  0  0  0  0  0  0  0  0  0  0
   -0.1967    1.0767    5.6908 O   0  0  0  0  0  0  0  0  0  0  0  0
    1.1473    0.4567    8.9366 C   0  0  0  0  0  0  0  0  0  0  0  0
    1.0480    1.4973    9.8568 O   0  0  0  0  0  0  0  0  0  0  0  0
    2.1297    1.3451   11.1180 P   0  0  1  0  0  5  0  0  0  0  0  0
    2.2833    2.5941   11.9369 O   0  0  0  0  0  0  0  0  0  0  0  0
    1.6364    0.0210   12.0697 O   0  0  0  0  0  0  0  0  0  0  0  0
    1.4208    0.6050   13.6472 P   0  0  2  0  0  5  0  0  0  0  0  0
    2.6671    1.3214   14.1283 O   0  0  0  0  0  0  0  0  0  0  0  0
    1.0713   -0.7313   14.6409 O   0  0  0  0  0  0  0  0  0  0  0  0
   -0.1955   -1.5791   13.8904 P   0  0  0  0  0  5  0  0  0  0  0  0
    0.3500   -2.6028   12.9145 O   0  0  0  0  0  0  0  0  0  0  0  0
   -1.2341   -0.4886   13.1149 O   0  0  0  0  0  1  0  0  0  0  0  0
   -1.1265   -2.4225   15.0386 O   0  0  0  0  0  1  0  0  0  0  0  0
    0.1030    1.6840   13.6228 O   0  0  0  0  0  1  0  0  0  0  0  0
    3.6552    0.9778   10.4691 O   0  0  0  0  0  1  0  0  0  0  0  0
  1  2  1  0
  2  3  1  0
  3  4  2  0
  4  5  1  0
  5  6  1  0
  5  7  2  0
  7  8  1  0
  8  9  2  0
  8 10  1  0
 10 11  1  0
 11 12  2  0
 13 10  1  1
 13 14  1  0
 14 15  1  0
 15 16  1  0
 16 17  1  0
 17 18  1  6
 16 19  1  6
 15 20  1  1
 20 21  1  0
 21 22  1  0
 22 23  2  0
 22 24  1  0
 24 25  1  0
 25 26  2  0
 25 27  1  0
 27 28  1  0
 28 29  2  0
 28 30  1  0
 28 31  1  0
 25 32  1  6
 22 33  1  6
  9  3  1  0
 17 13  1  0
 12  7  1  0
M  CHG  4  30  -1  31  -1  32  -1  33  -1
M  END
$$$$
