
     RDKit          3D

 33 35  0  0  0  0  0  0  0  0999 V2000
   -3.5770   -3.4230  -28.0102 C   0  0  0  0  0  0  0  0  0  0  0  0
   -2.6831   -2.3672  -26.8089 S   0  0  0  0  0  0  0  0  0  0  0  0
   -2.3692   -0.8138  -27.6355 C   0  0  0  0  0  0  0  0  0  0  0  0
   -3.1026   -0.3947  -28.6802 N   0  0  0  0  0  0  0  0  0  0  0  0
   -2.8543    0.7775  -29.2924 C   0  0  0  0  0  0  0  0  0  0  0  0
   -3.6354    1.2141  -30.3980 N   0  0  0  0  0  0  0  0  0  0  0  0
   -1.8099    1.5343  -28.7997 C   0  0  0  0  0  0  0  0  0  0  0  0
   -1.0397    1.1294  -27.7284 C   0  0  0  0  0  0  0  0  0  0  0  0
   -1.3558   -0.0616  -27.1703 N   0  0  0  0  0  0  0  0  0  0  0  0
   -0.0956    2.0491  -27.4560 N   0  0  0  0  0  0  0  0  0  0  0  0
   -0.2585    3.0324  -28.3424 C   0  0  0  0  0  0  0  0  0  0  0  0
   -1.2879    2.7366  -29.1590 N   0  0  0  0  0  0  0  0  0  0  0  0
    0.8632    1.9132  -26.3935 C   0  0  2  0  0  0  0  0  0  0  0  0
    1.1312    3.0712  -25.7174 O   0  0  0  0  0  0  0  0  0  0  0  0
    2.3696    2.9795  -25.1389 C   0  0  1  0  0  0  0  0  0  0  0  0
    3.0571    1.7541  -25.6815 C   0  0  2  0  0  0  0  0  0  0  0  0
    2.2313    1.4744  -26.9215 C   0  0  1  0  0  0  0  0  0  0  0  0
    2.2553    0.1535  -27.2889 O   0  0  0  0  0  0  0  0  0  0  0  0
    2.8288    0.6990  -24.7980 O   0  0  0  0  0  0  0  0  0  0  0  0
    3.1786    4.1776  -25.5066 C   0  0  0  0  0  0  0  0  0  0  0  0
    4.2546    3.8772  -26.3382 O   0  0  0  0  0  0  0  0  0  0  0  0
    4.0819    4.5179  -27.8691 P   0  0  1  0  0  5  0  0  0  0  0  0
    4.9280    5.7336  -28.1146 O   0  0  0  0  0  0  0  0  0  0  0  0
    4.4122    3.2797  -28.9916 O   0  0  0  0  0  0  0  0  0  0  0  0
    6.0982    3.1061  -29.0475 P   0  0  2  0  0  5  0  0  0  0  0  0
    6.7704    4.1027  -28.1239 O   0  0  0  0  0  0  0  0  0  0  0  0
    6.5821    3.3558  -30.6595 O   0  0  0  0  0  0  0  0  0  0  0  0
    5.3979    4.3402  -31.3773 P   0  0  0  0  0  5  0  0  0  0  0  0
    4.4847    4.9341  -30.3232 O   0  0  0  0  0  0  0  0  0  0  0  0
    4.5179    3.4423  -32.5125 O   0  0  0  0  0  1  0  0  0  0  0  0
    6.1125    5.6380  -32.2151 O   0  0  0  0  0  1  0  0  0  0  0  0
    6.4703    1.5175  -28.5581 O   0  0  0  0  0  1  0  0  0  0  0  0
    2.4615    4.9829  -28.0714 O   0  0  0  0  0  1  0  0  0  0  0  0
  1  2  1  0
  2  3  1  0
  3  4  2  0
  4  5  1  0
  5  6  1  0
  5  7  2  0
  7  8  1  0
  8  9  2  0
  8 10  1  0
 10 11  1  0
 11 12  2  0
 13 10  1  6
 13 14  1  0
 14 15  1  0
 15 16  1  0
 16 17  1  0
 17 18  1  1
 16 19  1  1
 15 20  1  6
 20 21  1  0
 21 22  1  0
 22 23  2  0
 22 24  1  0
 24 25  1  0
 25 26  2  0
 25 27  1  0
 27 28  1  0
 28 29  2  0
 28 30  1  0
 28 31  1  0
 25 32  1  1
 22 33  1  1
  9  3  1  0
 17 13  1  0
 12  7  1  0
M  CHG  4  30  -1  31  -1  32  -1  33  -1
M  END
$$$$
