
     RDKit          3D

 33 35  0  0  0  0  0  0  0  0999 V2000
   -2.1601   -5.7677    9.6430 C   0  0  0  0  0  0  0  0  0  0  0  0
   -2.1139   -3.9861    9.2182 S   0  0  0  0  0  0  0  0  0  0  0  0
   -1.7364   -3.1143   10.7323 C   0  0  0  0  0  0  0  0  0  0  0  0
   -2.1163   -3.5699   11.9377 N   0  0  0  0  0  0  0  0  0  0  0  0
   -1.8246   -2.9025   13.0691 C   0  0  0  0  0  0  0  0  0  0  0  0
   -2.2305   -3.3917   14.3415 N   0  0  0  0  0  0  0  0  0  0  0  0
   -1.1156   -1.7250   12.9383 C   0  0  0  0  0  0  0  0  0  0  0  0
   -0.7122   -1.2327   11.7137 C   0  0  0  0  0  0  0  0  0  0  0  0
   -1.0461   -1.9647   10.6262 N   0  0  0  0  0  0  0  0  0  0  0  0
   -0.0421   -0.0762   11.8714 N   0  0  0  0  0  0  0  0  0  0  0  0
   -0.0160    0.1702   13.1820 C   0  0  0  0  0  0  0  0  0  0  0  0
   -0.6590   -0.8146   13.8382 N   0  0  0  0  0  0  0  0  0  0  0  0
    0.5055    0.6804   10.7784 C   0  0  2  0  0  0  0  0  0  0  0  0
    0.6651    2.0143   11.0335 O   0  0  0  0  0  0  0  0  0  0  0  0
    0.6634    2.7033    9.8494 C   0  0  1  0  0  0  0  0  0  0  0  0
    0.2311    1.7637    8.7544 C   0  0  2  0  0  0  0  0  0  0  0  0
   -0.4148    0.6507    9.5556 C   0  0  1  0  0  0  0  0  0  0  0  0
   -0.3880   -0.5563    8.9052 O   0  0  0  0  0  0  0  0  0  0  0  0
    1.3750    1.2254    8.1649 O   0  0  0  0  0  0  0  0  0  0  0  0
   -0.3199    3.8222    9.9282 C   0  0  0  0  0  0  0  0  0  0  0  0
   -1.4024    3.5419   10.7584 O   0  0  0  0  0  0  0  0  0  0  0  0
   -2.2990    4.9003   11.1257 P   0  0  1  0  0  5  0  0  0  0  0  0
   -1.4797    6.0389   11.6609 O   0  0  0  0  0  0  0  0  0  0  0  0
   -3.1651    5.3458    9.7280 O   0  0  0  0  0  0  0  0  0  0  0  0
   -4.1332    4.0182    9.3078 P   0  0  2  0  0  5  0  0  0  0  0  0
   -3.7223    2.7865   10.0901 O   0  0  0  0  0  0  0  0  0  0  0  0
   -3.9467    3.7615    7.6362 O   0  0  0  0  0  0  0  0  0  0  0  0
   -4.9133    2.4223    7.2375 P   0  0  0  0  0  5  0  0  0  0  0  0
   -4.3372    1.1513    7.8294 O   0  0  0  0  0  0  0  0  0  0  0  0
   -5.0583    2.3014    5.5542 O   0  0  0  0  0  1  0  0  0  0  0  0
   -6.4868    2.6013    7.8610 O   0  0  0  0  0  1  0  0  0  0  0  0
   -5.7484    4.4228    9.6669 O   0  0  0  0  0  1  0  0  0  0  0  0
   -3.4273    4.4847   12.3246 O   0  0  0  0  0  1  0  0  0  0  0  0
  1  2  1  0
  2  3  1  0
  3  4  2  0
  4  5  1  0
  5  6  1  0
  5  7  2  0
  7  8  1  0
  8  9  2  0
  8 10  1  0
 10 11  1  0
 11 12  2  0
 13 10  1  1
 13 14  1  0
 14 15  1  0
 15 16  1  0
 16 17  1  0
 17 18  1  6
 16 19  1  1
 15 20  1  1
 20 21  1  0
 21 22  1  0
 22 23  2  0
 22 24  1  0
 24 25  1  0
 25 26  2  0
 25 27  1  0
 27 28  1  0
 28 29  2  0
 28 30  1  0
 28 31  1  0
 25 32  1  6
 22 33  1  1
  9  3  1  0
 17 13  1  0
 12  7  1  0
M  CHG  4  30  -1  31  -1  32  -1  33  -1
M  END
$$$$
