
     RDKit          3D

 33 35  0  0  0  0  0  0  0  0999 V2000
   -5.5087    5.3864  -27.8396 C   0  0  0  0  0  0  0  0  0  0  0  0
   -6.0134    4.0310  -26.7149 S   0  0  0  0  0  0  0  0  0  0  0  0
   -4.7391    2.7823  -26.8232 C   0  0  0  0  0  0  0  0  0  0  0  0
   -4.8886    1.5554  -26.2966 N   0  0  0  0  0  0  0  0  0  0  0  0
   -3.9202    0.6256  -26.3862 C   0  0  0  0  0  0  0  0  0  0  0  0
   -4.0864   -0.6712  -25.8259 N   0  0  0  0  0  0  0  0  0  0  0  0
   -2.7617    0.9870  -27.0446 C   0  0  0  0  0  0  0  0  0  0  0  0
   -2.5800    2.2394  -27.5953 C   0  0  0  0  0  0  0  0  0  0  0  0
   -3.6025    3.1149  -27.4610 N   0  0  0  0  0  0  0  0  0  0  0  0
   -1.3683    2.3251  -28.1747 N   0  0  0  0  0  0  0  0  0  0  0  0
   -0.7797    1.1413  -27.9976 C   0  0  0  0  0  0  0  0  0  0  0  0
   -1.6072    0.3243  -27.3182 N   0  0  0  0  0  0  0  0  0  0  0  0
   -0.8849    3.5071  -28.8350 C   0  0  2  0  0  0  0  0  0  0  0  0
    0.1285    3.2867  -29.7263 O   0  0  0  0  0  0  0  0  0  0  0  0
    0.8521    4.4397  -29.8807 C   0  0  1  0  0  0  0  0  0  0  0  0
    0.4138    5.4199  -28.8243 C   0  0  2  0  0  0  0  0  0  0  0  0
   -0.2847    4.5032  -27.8397 C   0  0  1  0  0  0  0  0  0  0  0  0
   -1.2412    5.1491  -27.0992 O   0  0  0  0  0  0  0  0  0  0  0  0
   -0.5677    6.2442  -29.3747 O   0  0  0  0  0  0  0  0  0  0  0  0
    2.3010    4.1462  -29.6817 C   0  0  0  0  0  0  0  0  0  0  0  0
    2.5738    3.5421  -28.4568 O   0  0  0  0  0  0  0  0  0  0  0  0
    4.1736    3.0937  -28.3037 P   0  0  1  0  0  5  0  0  0  0  0  0
    5.1023    4.2453  -28.0477 O   0  0  0  0  0  0  0  0  0  0  0  0
    4.2692    1.9181  -27.0744 O   0  0  0  0  0  0  0  0  0  0  0  0
    5.2900    0.6914  -27.6482 P   0  0  2  0  0  5  0  0  0  0  0  0
    4.6489   -0.0387  -28.8118 O   0  0  0  0  0  0  0  0  0  0  0  0
    5.5818   -0.3742  -26.3541 O   0  0  0  0  0  0  0  0  0  0  0  0
    4.0750   -0.6963  -25.6382 P   0  0  0  0  0  5  0  0  0  0  0  0
    3.7913    0.2890  -24.5218 O   0  0  0  0  0  0  0  0  0  0  0  0
    4.0405   -2.2912  -25.0689 O   0  0  0  0  0  1  0  0  0  0  0  0
    2.8174   -0.5463  -26.7752 O   0  0  0  0  0  1  0  0  0  0  0  0
    6.7440    1.4226  -28.1508 O   0  0  0  0  0  1  0  0  0  0  0  0
    4.6634    2.3654  -29.7572 O   0  0  0  0  0  1  0  0  0  0  0  0
  1  2  1  0
  2  3  1  0
  3  4  2  0
  4  5  1  0
  5  6  1  0
  5  7  2  0
  7  8  1  0
  8  9  2  0
  8 10  1  0
 10 11  1  0
 11 12  2  0
 13 10  1  1
 13 14  1  0
 14 15  1  0
 15 16  1  0
 16 17  1  0
 17 18  1  6
 16 19  1  6
 15 20  1  1
 20 21  1  0
 21 22  1  0
 22 23  2  0
 22 24  1  0
 24 25  1  0
 25 26  2  0
 25 27  1  0
 27 28  1  0
 28 29  2  0
 28 30  1  0
 28 31  1  0
 25 32  1  6
 22 33  1  6
  9  3  1  0
 17 13  1  0
 12  7  1  0
M  CHG  4  30  -1  31  -1  32  -1  33  -1
M  END
$$$$
