
     RDKit          3D

 33 35  0  0  0  0  0  0  0  0999 V2000
   -5.5132   -0.1798    5.3948 C   0  0  0  0  0  0  0  0  0  0  0  0
   -6.7236    1.1550    5.7266 S   0  0  0  0  0  0  0  0  0  0  0  0
   -6.1256    2.0351    7.1628 C   0  0  0  0  0  0  0  0  0  0  0  0
   -6.9389    2.7514    7.9568 N   0  0  0  0  0  0  0  0  0  0  0  0
   -6.4740    3.4088    9.0349 C   0  0  0  0  0  0  0  0  0  0  0  0
   -7.3417    4.1651    9.8704 N   0  0  0  0  0  0  0  0  0  0  0  0
   -5.1207    3.3158    9.2916 C   0  0  0  0  0  0  0  0  0  0  0  0
   -4.2614    2.5876    8.4940 C   0  0  0  0  0  0  0  0  0  0  0  0
   -4.8097    1.9569    7.4302 N   0  0  0  0  0  0  0  0  0  0  0  0
   -3.0040    2.6647    8.9675 N   0  0  0  0  0  0  0  0  0  0  0  0
   -3.0562    3.4335   10.0563 C   0  0  0  0  0  0  0  0  0  0  0  0
   -4.3253    3.8335   10.2645 N   0  0  0  0  0  0  0  0  0  0  0  0
   -1.8814    2.0108    8.3519 C   0  0  2  0  0  0  0  0  0  0  0  0
   -1.2982    1.0398    9.1181 O   0  0  0  0  0  0  0  0  0  0  0  0
    0.0018    0.8713    8.7201 C   0  0  1  0  0  0  0  0  0  0  0  0
    0.3576    1.9898    7.7761 C   0  0  2  0  0  0  0  0  0  0  0  0
   -0.7395    2.9919    8.0756 C   0  0  1  0  0  0  0  0  0  0  0  0
   -1.0033    3.8228    7.0170 O   0  0  0  0  0  0  0  0  0  0  0  0
    0.1503    1.5419    6.4714 O   0  0  0  0  0  0  0  0  0  0  0  0
    0.8989    0.9523    9.9091 C   0  0  0  0  0  0  0  0  0  0  0  0
    0.4109    1.7929   10.9065 O   0  0  0  0  0  0  0  0  0  0  0  0
    1.4464    1.9127   12.2093 P   0  0  1  0  0  5  0  0  0  0  0  0
    1.4436    3.2651   12.8615 O   0  0  0  0  0  0  0  0  0  0  0  0
    1.0416    0.6779   13.3110 O   0  0  0  0  0  0  0  0  0  0  0  0
    2.4373   -0.2606   13.5292 P   0  0  2  0  0  5  0  0  0  0  0  0
    2.2917   -1.1644   14.7374 O   0  0  0  0  0  0  0  0  0  0  0  0
    3.7440    0.8104   13.7307 O   0  0  0  0  0  0  0  0  0  0  0  0
    5.0375   -0.1074   14.3399 P   0  0  0  0  0  5  0  0  0  0  0  0
    6.3639    0.5316   13.9792 O   0  0  0  0  0  0  0  0  0  0  0  0
    4.9426   -1.6926   13.7503 O   0  0  0  0  0  1  0  0  0  0  0  0
    4.9685   -0.2029   16.0377 O   0  0  0  0  0  1  0  0  0  0  0  0
    2.6536   -1.1988   12.1240 O   0  0  0  0  0  1  0  0  0  0  0  0
    3.0268    1.6213   11.6612 O   0  0  0  0  0  1  0  0  0  0  0  0
  1  2  1  0
  2  3  1  0
  3  4  2  0
  4  5  1  0
  5  6  1  0
  5  7  2  0
  7  8  1  0
  8  9  2  0
  8 10  1  0
 10 11  1  0
 11 12  2  0
 13 10  1  1
 13 14  1  0
 14 15  1  0
 15 16  1  0
 16 17  1  0
 17 18  1  6
 16 19  1  6
 15 20  1  1
 20 21  1  0
 21 22  1  0
 22 23  2  0
 22 24  1  0
 24 25  1  0
 25 26  2  0
 25 27  1  0
 27 28  1  0
 28 29  2  0
 28 30  1  0
 28 31  1  0
 25 32  1  6
 22 33  1  6
  9  3  1  0
 17 13  1  0
 12  7  1  0
M  CHG  4  30  -1  31  -1  32  -1  33  -1
M  END
$$$$
