
     RDKit          3D

 33 35  0  0  0  0  0  0  0  0999 V2000
   -3.2094    8.5100    9.6748 C   0  0  0  0  0  0  0  0  0  0  0  0
   -2.7160    7.1945    8.4989 S   0  0  0  0  0  0  0  0  0  0  0  0
   -3.9489    5.9073    8.6327 C   0  0  0  0  0  0  0  0  0  0  0  0
   -5.1472    6.1165    9.2030 N   0  0  0  0  0  0  0  0  0  0  0  0
   -6.0655    5.1375    9.2965 C   0  0  0  0  0  0  0  0  0  0  0  0
   -7.3319    5.3672    9.9018 N   0  0  0  0  0  0  0  0  0  0  0  0
   -5.7229    3.9039    8.7796 C   0  0  0  0  0  0  0  0  0  0  0  0
   -4.4999    3.6598    8.1883 C   0  0  0  0  0  0  0  0  0  0  0  0
   -3.6343    4.6980    8.1349 N   0  0  0  0  0  0  0  0  0  0  0  0
   -4.4275    2.3818    7.7723 N   0  0  0  0  0  0  0  0  0  0  0  0
   -5.5905    1.8131    8.0931 C   0  0  0  0  0  0  0  0  0  0  0  0
   -6.3817    2.7178    8.7008 N   0  0  0  0  0  0  0  0  0  0  0  0
   -3.2762    1.8235    7.1169 C   0  0  2  0  0  0  0  0  0  0  0  0
   -3.3766    0.4907    6.8279 O   0  0  0  0  0  0  0  0  0  0  0  0
   -2.1197   -0.0440    6.7228 C   0  0  1  0  0  0  0  0  0  0  0  0
   -1.1275    0.9758    7.2169 C   0  0  2  0  0  0  0  0  0  0  0  0
   -2.0277    1.9122    7.9981 C   0  0  1  0  0  0  0  0  0  0  0  0
   -1.5279    3.1868    8.0768 O   0  0  0  0  0  0  0  0  0  0  0  0
   -0.6555    1.6932    6.1175 O   0  0  0  0  0  0  0  0  0  0  0  0
   -2.0226   -1.2559    7.5870 C   0  0  0  0  0  0  0  0  0  0  0  0
   -2.0494   -0.9611    8.9479 O   0  0  0  0  0  0  0  0  0  0  0  0
   -2.8520   -2.1199    9.8406 P   0  0  1  0  0  5  0  0  0  0  0  0
   -2.1213   -3.4286    9.9288 O   0  0  0  0  0  0  0  0  0  0  0  0
   -3.1654   -1.4649   11.3817 O   0  0  0  0  0  0  0  0  0  0  0  0
   -1.7500   -0.6702   11.8731 P   0  0  2  0  0  5  0  0  0  0  0  0
   -1.9574    0.8313   11.8916 O   0  0  0  0  0  0  0  0  0  0  0  0
   -0.5207   -1.0962   10.7766 O   0  0  0  0  0  0  0  0  0  0  0  0
    0.9089   -0.3724   11.3413 P   0  0  0  0  0  5  0  0  0  0  0  0
    1.2614   -0.8894   12.7220 O   0  0  0  0  0  0  0  0  0  0  0  0
    0.7346    1.3125   11.3460 O   0  0  0  0  0  1  0  0  0  0  0  0
    2.2191   -0.7344   10.3172 O   0  0  0  0  0  1  0  0  0  0  0  0
   -1.3641   -1.2230   13.4374 O   0  0  0  0  0  1  0  0  0  0  0  0
   -4.3458   -2.4266    9.0938 O   0  0  0  0  0  1  0  0  0  0  0  0
  1  2  1  0
  2  3  1  0
  3  4  2  0
  4  5  1  0
  5  6  1  0
  5  7  2  0
  7  8  1  0
  8  9  2  0
  8 10  1  0
 10 11  1  0
 11 12  2  0
 13 10  1  1
 13 14  1  0
 14 15  1  0
 15 16  1  0
 16 17  1  0
 17 18  1  6
 16 19  1  6
 15 20  1  1
 20 21  1  0
 21 22  1  0
 22 23  2  0
 22 24  1  0
 24 25  1  0
 25 26  2  0
 25 27  1  0
 27 28  1  0
 28 29  2  0
 28 30  1  0
 28 31  1  0
 25 32  1  1
 22 33  1  6
  9  3  1  0
 17 13  1  0
 12  7  1  0
M  CHG  4  30  -1  31  -1  32  -1  33  -1
M  END
$$$$
