
     RDKit          3D

 33 35  0  0  0  0  0  0  0  0999 V2000
   -0.7505    7.3383   12.7292 C   0  0  0  0  0  0  0  0  0  0  0  0
   -0.6197    6.0488   11.4342 S   0  0  0  0  0  0  0  0  0  0  0  0
   -2.2459    5.3244   11.2750 C   0  0  0  0  0  0  0  0  0  0  0  0
   -3.1644    5.3985   12.2526 N   0  0  0  0  0  0  0  0  0  0  0  0
   -4.3849    4.8481   12.1182 C   0  0  0  0  0  0  0  0  0  0  0  0
   -5.3518    4.9309   13.1580 N   0  0  0  0  0  0  0  0  0  0  0  0
   -4.6544    4.2015   10.9284 C   0  0  0  0  0  0  0  0  0  0  0  0
   -3.7309    4.1096    9.9070 C   0  0  0  0  0  0  0  0  0  0  0  0
   -2.5282    4.6898   10.1231 N   0  0  0  0  0  0  0  0  0  0  0  0
   -4.2490    3.4309    8.8666 N   0  0  0  0  0  0  0  0  0  0  0  0
   -5.4905    3.0915    9.2169 C   0  0  0  0  0  0  0  0  0  0  0  0
   -5.7494    3.5489   10.4569 N   0  0  0  0  0  0  0  0  0  0  0  0
   -3.5285    3.1691    7.6504 C   0  0  2  0  0  0  0  0  0  0  0  0
   -4.1859    2.3643    6.7616 O   0  0  0  0  0  0  0  0  0  0  0  0
   -3.2718    1.7564    5.9420 C   0  0  1  0  0  0  0  0  0  0  0  0
   -1.8950    2.0067    6.4990 C   0  0  2  0  0  0  0  0  0  0  0  0
   -2.2201    2.4218    7.9201 C   0  0  1  0  0  0  0  0  0  0  0  0
   -1.2572    3.2275    8.4716 O   0  0  0  0  0  0  0  0  0  0  0  0
   -1.3642    3.1285    5.8621 O   0  0  0  0  0  0  0  0  0  0  0  0
   -3.5174    0.2851    5.9306 C   0  0  0  0  0  0  0  0  0  0  0  0
   -3.9498   -0.2070    7.1596 O   0  0  0  0  0  0  0  0  0  0  0  0
   -4.4260   -1.8042    7.0806 P   0  0  1  0  0  5  0  0  0  0  0  0
   -4.1817   -2.4424    5.7437 O   0  0  0  0  0  0  0  0  0  0  0  0
   -3.6392   -2.6444    8.3364 O   0  0  0  0  0  0  0  0  0  0  0  0
   -2.6679   -1.5155    9.1476 P   0  0  2  0  0  5  0  0  0  0  0  0
   -2.3830   -0.3189    8.2615 O   0  0  0  0  0  0  0  0  0  0  0  0
   -1.2234   -2.3043    9.5792 O   0  0  0  0  0  0  0  0  0  0  0  0
   -1.6449   -3.8933   10.0086 P   0  0  0  0  0  5  0  0  0  0  0  0
   -0.4572   -4.6181   10.6101 O   0  0  0  0  0  0  0  0  0  0  0  0
   -2.2388   -4.7148    8.6516 O   0  0  0  0  0  1  0  0  0  0  0  0
   -2.8836   -3.8992   11.1757 O   0  0  0  0  0  1  0  0  0  0  0  0
   -3.5093   -1.0184   10.5428 O   0  0  0  0  0  1  0  0  0  0  0  0
   -6.0966   -1.8764    7.3752 O   0  0  0  0  0  1  0  0  0  0  0  0
  1  2  1  0
  2  3  1  0
  3  4  2  0
  4  5  1  0
  5  6  1  0
  5  7  2  0
  7  8  1  0
  8  9  2  0
  8 10  1  0
 10 11  1  0
 11 12  2  0
 13 10  1  1
 13 14  1  0
 14 15  1  0
 15 16  1  0
 16 17  1  0
 17 18  1  6
 16 19  1  6
 15 20  1  1
 20 21  1  0
 21 22  1  0
 22 23  2  0
 22 24  1  0
 24 25  1  0
 25 26  2  0
 25 27  1  0
 27 28  1  0
 28 29  2  0
 28 30  1  0
 28 31  1  0
 25 32  1  1
 22 33  1  1
  9  3  1  0
 17 13  1  0
 12  7  1  0
M  CHG  4  30  -1  31  -1  32  -1  33  -1
M  END
$$$$
