
     RDKit          3D

 33 35  0  0  0  0  0  0  0  0999 V2000
   -5.4497   -2.4087   10.7084 C   0  0  0  0  0  0  0  0  0  0  0  0
   -3.6745   -2.0132   10.4868 S   0  0  0  0  0  0  0  0  0  0  0  0
   -3.3148   -0.6598   11.5976 C   0  0  0  0  0  0  0  0  0  0  0  0
   -3.9612   -0.4963   12.7639 N   0  0  0  0  0  0  0  0  0  0  0  0
   -3.6793    0.5278   13.5900 C   0  0  0  0  0  0  0  0  0  0  0  0
   -4.3683    0.6939   14.8232 N   0  0  0  0  0  0  0  0  0  0  0  0
   -2.6940    1.4068   13.1868 C   0  0  0  0  0  0  0  0  0  0  0  0
   -2.0135    1.2640   11.9946 C   0  0  0  0  0  0  0  0  0  0  0  0
   -2.3577    0.2078   11.2228 N   0  0  0  0  0  0  0  0  0  0  0  0
   -1.1113    2.2522   11.8489 N   0  0  0  0  0  0  0  0  0  0  0  0
   -1.2122    3.0197   12.9351 C   0  0  0  0  0  0  0  0  0  0  0  0
   -2.1619    2.5230   13.7508 N   0  0  0  0  0  0  0  0  0  0  0  0
   -0.2469    2.3770   10.7070 C   0  0  2  0  0  0  0  0  0  0  0  0
   -0.5541    3.4151    9.8716 O   0  0  0  0  0  0  0  0  0  0  0  0
   -0.0709    3.1440    8.6187 C   0  0  1  0  0  0  0  0  0  0  0  0
    0.3799    1.7072    8.5848 C   0  0  2  0  0  0  0  0  0  0  0  0
   -0.3269    1.1450    9.8021 C   0  0  1  0  0  0  0  0  0  0  0  0
    0.3165    0.0574   10.3348 O   0  0  0  0  0  0  0  0  0  0  0  0
    1.7470    1.6727    8.8599 O   0  0  0  0  0  0  0  0  0  0  0  0
   -1.1623    3.3210    7.6173 C   0  0  0  0  0  0  0  0  0  0  0  0
   -2.4168    2.9650    8.1064 O   0  0  0  0  0  0  0  0  0  0  0  0
   -3.6599    3.4683    7.1139 P   0  0  1  0  0  5  0  0  0  0  0  0
   -4.2453    4.7948    7.5034 O   0  0  0  0  0  0  0  0  0  0  0  0
   -3.0760    3.4794    5.5135 O   0  0  0  0  0  0  0  0  0  0  0  0
   -3.0262    1.8641    4.9991 P   0  0  2  0  0  5  0  0  0  0  0  0
   -1.6182    1.4733    4.5959 O   0  0  0  0  0  0  0  0  0  0  0  0
   -4.0940    1.7165    3.6825 O   0  0  0  0  0  0  0  0  0  0  0  0
   -4.3846    0.0555    3.4742 P   0  0  0  0  0  5  0  0  0  0  0  0
   -3.1617   -0.6343    2.9029 O   0  0  0  0  0  0  0  0  0  0  0  0
   -5.7348   -0.1689    2.4762 O   0  0  0  0  0  1  0  0  0  0  0  0
   -4.7362   -0.6914    4.9625 O   0  0  0  0  0  1  0  0  0  0  0  0
   -3.5502    0.8926    6.2965 O   0  0  0  0  0  1  0  0  0  0  0  0
   -4.9089    2.3213    7.2024 O   0  0  0  0  0  1  0  0  0  0  0  0
  1  2  1  0
  2  3  1  0
  3  4  2  0
  4  5  1  0
  5  6  1  0
  5  7  2  0
  7  8  1  0
  8  9  2  0
  8 10  1  0
 10 11  1  0
 11 12  2  0
 13 10  1  1
 13 14  1  0
 14 15  1  0
 15 16  1  0
 16 17  1  0
 17 18  1  1
 16 19  1  1
 15 20  1  6
 20 21  1  0
 21 22  1  0
 22 23  2  0
 22 24  1  0
 24 25  1  0
 25 26  2  0
 25 27  1  0
 27 28  1  0
 28 29  2  0
 28 30  1  0
 28 31  1  0
 25 32  1  1
 22 33  1  6
  9  3  1  0
 17 13  1  0
 12  7  1  0
M  CHG  4  30  -1  31  -1  32  -1  33  -1
M  END
$$$$
