
     RDKit          3D

 33 35  0  0  0  0  0  0  0  0999 V2000
    1.5636    3.2549   12.3736 C   0  0  0  0  0  0  0  0  0  0  0  0
    1.2186    2.1001   13.7535 S   0  0  0  0  0  0  0  0  0  0  0  0
   -0.5089    1.6592   13.6248 C   0  0  0  0  0  0  0  0  0  0  0  0
   -1.0848    0.7635   14.4439 N   0  0  0  0  0  0  0  0  0  0  0  0
   -2.3868    0.4417   14.3348 C   0  0  0  0  0  0  0  0  0  0  0  0
   -2.9890   -0.5078   15.2060 N   0  0  0  0  0  0  0  0  0  0  0  0
   -3.1086    1.0734   13.3418 C   0  0  0  0  0  0  0  0  0  0  0  0
   -2.5439    1.9973   12.4862 C   0  0  0  0  0  0  0  0  0  0  0  0
   -1.2296    2.2638   12.6634 N   0  0  0  0  0  0  0  0  0  0  0  0
   -3.4648    2.4564   11.6186 N   0  0  0  0  0  0  0  0  0  0  0  0
   -4.6068    1.8340   11.9145 C   0  0  0  0  0  0  0  0  0  0  0  0
   -4.4080    0.9973   12.9509 N   0  0  0  0  0  0  0  0  0  0  0  0
   -3.1813    3.4311   10.6006 C   0  0  2  0  0  0  0  0  0  0  0  0
   -3.9869    3.3534    9.4984 O   0  0  0  0  0  0  0  0  0  0  0  0
   -3.3381    3.9060    8.4257 C   0  0  1  0  0  0  0  0  0  0  0  0
   -1.9028    4.1483    8.8127 C   0  0  2  0  0  0  0  0  0  0  0  0
   -1.7699    3.2595   10.0334 C   0  0  1  0  0  0  0  0  0  0  0  0
   -0.7980    3.6892   10.9000 O   0  0  0  0  0  0  0  0  0  0  0  0
   -1.7875    5.4653    9.2577 O   0  0  0  0  0  0  0  0  0  0  0  0
   -3.3647    2.9478    7.2827 C   0  0  0  0  0  0  0  0  0  0  0  0
   -2.9392    1.6684    7.6313 O   0  0  0  0  0  0  0  0  0  0  0  0
   -3.1627    0.5603    6.4040 P   0  0  1  0  0  5  0  0  0  0  0  0
   -2.4720   -0.7516    6.6408 O   0  0  0  0  0  0  0  0  0  0  0  0
   -4.8399    0.3615    6.1815 O   0  0  0  0  0  0  0  0  0  0  0  0
   -5.0662   -0.1260    4.5730 P   0  0  2  0  0  5  0  0  0  0  0  0
   -6.3393   -0.9369    4.4329 O   0  0  0  0  0  0  0  0  0  0  0  0
   -3.7095   -1.0506    4.1262 O   0  0  0  0  0  0  0  0  0  0  0  0
   -4.2173   -2.0933    2.8845 P   0  0  0  0  0  5  0  0  0  0  0  0
   -4.5553   -3.4625    3.4402 O   0  0  0  0  0  0  0  0  0  0  0  0
   -3.0152   -2.1962    1.6955 O   0  0  0  0  0  1  0  0  0  0  0  0
   -5.6188   -1.4968    2.1251 O   0  0  0  0  0  1  0  0  0  0  0  0
   -5.1642    1.2799    3.6162 O   0  0  0  0  0  1  0  0  0  0  0  0
   -2.5236    1.2149    4.9736 O   0  0  0  0  0  1  0  0  0  0  0  0
  1  2  1  0
  2  3  1  0
  3  4  2  0
  4  5  1  0
  5  6  1  0
  5  7  2  0
  7  8  1  0
  8  9  2  0
  8 10  1  0
 10 11  1  0
 11 12  2  0
 13 10  1  1
 13 14  1  0
 14 15  1  0
 15 16  1  0
 16 17  1  0
 17 18  1  1
 16 19  1  1
 15 20  1  6
 20 21  1  0
 21 22  1  0
 22 23  2  0
 22 24  1  0
 24 25  1  0
 25 26  2  0
 25 27  1  0
 27 28  1  0
 28 29  2  0
 28 30  1  0
 28 31  1  0
 25 32  1  6
 22 33  1  6
  9  3  1  0
 17 13  1  0
 12  7  1  0
M  CHG  4  30  -1  31  -1  32  -1  33  -1
M  END
$$$$
