
     RDKit          3D

 33 35  0  0  0  0  0  0  0  0999 V2000
   -7.1945   17.2732  -10.0557 C   0  0  0  0  0  0  0  0  0  0  0  0
   -5.6446   17.5129   -9.1085 S   0  0  0  0  0  0  0  0  0  0  0  0
   -4.6659   16.0382   -9.3574 C   0  0  0  0  0  0  0  0  0  0  0  0
   -5.0072   15.0908  -10.2467 N   0  0  0  0  0  0  0  0  0  0  0  0
   -4.2602   13.9856  -10.4230 C   0  0  0  0  0  0  0  0  0  0  0  0
   -4.6286   12.9872  -11.3667 N   0  0  0  0  0  0  0  0  0  0  0  0
   -3.1236   13.8659   -9.6484 C   0  0  0  0  0  0  0  0  0  0  0  0
   -2.7481   14.8226   -8.7273 C   0  0  0  0  0  0  0  0  0  0  0  0
   -3.5544   15.9027   -8.6122 N   0  0  0  0  0  0  0  0  0  0  0  0
   -1.6074   14.4588   -8.1126 N   0  0  0  0  0  0  0  0  0  0  0  0
   -1.2555   13.2825   -8.6335 C   0  0  0  0  0  0  0  0  0  0  0  0
   -2.1595   12.9121   -9.5606 N   0  0  0  0  0  0  0  0  0  0  0  0
   -0.9633   15.2500   -7.0996 C   0  0  2  0  0  0  0  0  0  0  0  0
   -0.0533   16.1527   -7.5759 O   0  0  0  0  0  0  0  0  0  0  0  0
    0.8495   16.4469   -6.5883 C   0  0  1  0  0  0  0  0  0  0  0  0
    0.6454   15.4764   -5.4546 C   0  0  2  0  0  0  0  0  0  0  0  0
   -0.1467   14.3808   -6.1401 C   0  0  1  0  0  0  0  0  0  0  0  0
   -0.9354   13.6721   -5.2705 O   0  0  0  0  0  0  0  0  0  0  0  0
   -0.2070   16.0681   -4.5224 O   0  0  0  0  0  0  0  0  0  0  0  0
    2.2344   16.2745   -7.1151 C   0  0  0  0  0  0  0  0  0  0  0  0
    2.5344   14.9549   -7.4441 O   0  0  0  0  0  0  0  0  0  0  0  0
    3.8355   14.8312   -8.4813 P   0  0  1  0  0  5  0  0  0  0  0  0
    4.0077   13.4627   -9.0745 O   0  0  0  0  0  0  0  0  0  0  0  0
    3.6576   16.0246   -9.6839 O   0  0  0  0  0  0  0  0  0  0  0  0
    3.6647   15.2203  -11.1769 P   0  0  2  0  0  5  0  0  0  0  0  0
    4.6877   14.1016  -11.1781 O   0  0  0  0  0  0  0  0  0  0  0  0
    4.0295   16.3731  -12.3740 O   0  0  0  0  0  0  0  0  0  0  0  0
    5.4652   17.1417  -11.8895 P   0  0  0  0  0  5  0  0  0  0  0  0
    5.2533   17.9067  -10.5981 O   0  0  0  0  0  0  0  0  0  0  0  0
    6.0114   18.1654  -13.1235 O   0  0  0  0  0  1  0  0  0  0  0  0
    6.6980   16.0032  -11.6051 O   0  0  0  0  0  1  0  0  0  0  0  0
    2.1052   14.5820  -11.4270 O   0  0  0  0  0  1  0  0  0  0  0  0
    5.2481   15.1823   -7.6069 O   0  0  0  0  0  1  0  0  0  0  0  0
  1  2  1  0
  2  3  1  0
  3  4  2  0
  4  5  1  0
  5  6  1  0
  5  7  2  0
  7  8  1  0
  8  9  2  0
  8 10  1  0
 10 11  1  0
 11 12  2  0
 13 10  1  6
 13 14  1  0
 14 15  1  0
 15 16  1  0
 16 17  1  0
 17 18  1  1
 16 19  1  1
 15 20  1  6
 20 21  1  0
 21 22  1  0
 22 23  2  0
 22 24  1  0
 24 25  1  0
 25 26  2  0
 25 27  1  0
 27 28  1  0
 28 29  2  0
 28 30  1  0
 28 31  1  0
 25 32  1  6
 22 33  1  1
  9  3  1  0
 17 13  1  0
 12  7  1  0
M  CHG  4  30  -1  31  -1  32  -1  33  -1
M  END
$$$$
