
     RDKit          3D

 33 35  0  0  0  0  0  0  0  0999 V2000
   -1.5687    9.4456   11.5364 C   0  0  0  0  0  0  0  0  0  0  0  0
   -1.6379    8.2517   10.1483 S   0  0  0  0  0  0  0  0  0  0  0  0
   -2.6116    6.8662   10.7202 C   0  0  0  0  0  0  0  0  0  0  0  0
   -3.3836    6.9347   11.8176 N   0  0  0  0  0  0  0  0  0  0  0  0
   -4.1113    5.8830   12.2359 C   0  0  0  0  0  0  0  0  0  0  0  0
   -4.9262    5.9637   13.3989 N   0  0  0  0  0  0  0  0  0  0  0  0
   -4.0307    4.7260   11.4869 C   0  0  0  0  0  0  0  0  0  0  0  0
   -3.2464    4.6265   10.3557 C   0  0  0  0  0  0  0  0  0  0  0  0
   -2.5468    5.7295   10.0040 N   0  0  0  0  0  0  0  0  0  0  0  0
   -3.3508    3.3961    9.8200 N   0  0  0  0  0  0  0  0  0  0  0  0
   -4.1923    2.7147   10.5989 C   0  0  0  0  0  0  0  0  0  0  0  0
   -4.6105    3.5028   11.6077 N   0  0  0  0  0  0  0  0  0  0  0  0
   -2.6516    2.9840    8.6335 C   0  0  2  0  0  0  0  0  0  0  0  0
   -3.3150    2.0604    7.8740 O   0  0  0  0  0  0  0  0  0  0  0  0
   -2.4090    1.3602    7.1219 C   0  0  1  0  0  0  0  0  0  0  0  0
   -1.0248    1.6989    7.6100 C   0  0  2  0  0  0  0  0  0  0  0  0
   -1.3269    2.2950    8.9705 C   0  0  1  0  0  0  0  0  0  0  0  0
   -0.3651    3.1785    9.3887 O   0  0  0  0  0  0  0  0  0  0  0  0
   -0.5242    2.7326    6.8184 O   0  0  0  0  0  0  0  0  0  0  0  0
   -2.6326   -0.1024    7.3110 C   0  0  0  0  0  0  0  0  0  0  0  0
   -2.0200   -0.6061    8.4559 O   0  0  0  0  0  0  0  0  0  0  0  0
   -3.0486   -1.5452    9.3746 P   0  0  1  0  0  5  0  0  0  0  0  0
   -4.4105   -0.9423    9.5641 O   0  0  0  0  0  0  0  0  0  0  0  0
   -3.1332   -3.0851    8.6508 O   0  0  0  0  0  0  0  0  0  0  0  0
   -3.1329   -2.8383    6.9729 P   0  0  2  0  0  5  0  0  0  0  0  0
   -3.1908   -1.3586    6.6490 O   0  0  0  0  0  0  0  0  0  0  0  0
   -4.4885   -3.6484    6.3394 O   0  0  0  0  0  0  0  0  0  0  0  0
   -5.0875   -2.6826    5.0764 P   0  0  0  0  0  5  0  0  0  0  0  0
   -5.6111   -1.3649    5.6123 O   0  0  0  0  0  0  0  0  0  0  0  0
   -6.2942   -3.5230    4.2357 O   0  0  0  0  0  1  0  0  0  0  0  0
   -3.8603   -2.3192    3.9546 O   0  0  0  0  0  1  0  0  0  0  0  0
   -1.6976   -3.5136    6.3520 O   0  0  0  0  0  1  0  0  0  0  0  0
   -2.3624   -1.7336   10.9162 O   0  0  0  0  0  1  0  0  0  0  0  0
  1  2  1  0
  2  3  1  0
  3  4  2  0
  4  5  1  0
  5  6  1  0
  5  7  2  0
  7  8  1  0
  8  9  2  0
  8 10  1  0
 10 11  1  0
 11 12  2  0
 13 10  1  1
 13 14  1  0
 14 15  1  0
 15 16  1  0
 16 17  1  0
 17 18  1  6
 16 19  1  6
 15 20  1  1
 20 21  1  0
 21 22  1  0
 22 23  2  0
 22 24  1  0
 24 25  1  0
 25 26  2  0
 25 27  1  0
 27 28  1  0
 28 29  2  0
 28 30  1  0
 28 31  1  0
 25 32  1  6
 22 33  1  1
  9  3  1  0
 17 13  1  0
 12  7  1  0
M  CHG  4  30  -1  31  -1  32  -1  33  -1
M  END
$$$$
