
     RDKit          3D

 33 35  0  0  0  0  0  0  0  0999 V2000
  -11.9301   -0.3388  -21.6435 C   0  0  0  0  0  0  0  0  0  0  0  0
  -13.6569   -0.1439  -21.0628 S   0  0  0  0  0  0  0  0  0  0  0  0
  -14.5555    0.6332  -22.3983 C   0  0  0  0  0  0  0  0  0  0  0  0
  -14.7152    0.0444  -23.5952 N   0  0  0  0  0  0  0  0  0  0  0  0
  -15.3945    0.6420  -24.5912 C   0  0  0  0  0  0  0  0  0  0  0  0
  -15.5591    0.0118  -25.8557 N   0  0  0  0  0  0  0  0  0  0  0  0
  -15.9224    1.8907  -24.3302 C   0  0  0  0  0  0  0  0  0  0  0  0
  -15.7743    2.5198  -23.1107 C   0  0  0  0  0  0  0  0  0  0  0  0
  -15.0777    1.8504  -22.1638 N   0  0  0  0  0  0  0  0  0  0  0  0
  -16.3830    3.7201  -23.1258 N   0  0  0  0  0  0  0  0  0  0  0  0
  -16.9153    3.8591  -24.3409 C   0  0  0  0  0  0  0  0  0  0  0  0
  -16.6461    2.7647  -25.0782 N   0  0  0  0  0  0  0  0  0  0  0  0
  -16.4040    4.6147  -22.0007 C   0  0  2  0  0  0  0  0  0  0  0  0
  -15.8396    5.8379  -22.2358 O   0  0  0  0  0  0  0  0  0  0  0  0
  -15.4283    6.3809  -21.0472 C   0  0  1  0  0  0  0  0  0  0  0  0
  -15.5213    5.3189  -19.9831 C   0  0  2  0  0  0  0  0  0  0  0  0
  -15.5958    4.0605  -20.8247 C   0  0  1  0  0  0  0  0  0  0  0  0
  -16.2359    3.0304  -20.1846 O   0  0  0  0  0  0  0  0  0  0  0  0
  -16.7538    5.4500  -19.3429 O   0  0  0  0  0  0  0  0  0  0  0  0
  -14.0044    6.8098  -21.1643 C   0  0  0  0  0  0  0  0  0  0  0  0
  -13.1505    5.7755  -21.5395 O   0  0  0  0  0  0  0  0  0  0  0  0
  -11.5584    6.0818  -21.1455 P   0  0  1  0  0  5  0  0  0  0  0  0
  -11.3926    6.9754  -19.9504 O   0  0  0  0  0  0  0  0  0  0  0  0
  -10.7785    4.5829  -20.9282 O   0  0  0  0  0  0  0  0  0  0  0  0
  -11.6197    3.4519  -21.8713 P   0  0  2  0  0  5  0  0  0  0  0  0
  -13.1119    3.5518  -21.6237 O   0  0  0  0  0  0  0  0  0  0  0  0
  -11.0403    1.9082  -21.4514 O   0  0  0  0  0  0  0  0  0  0  0  0
  -11.3722    1.6955  -19.7987 P   0  0  0  0  0  5  0  0  0  0  0  0
  -11.7813    3.0087  -19.1617 O   0  0  0  0  0  0  0  0  0  0  0  0
  -10.0186    1.0356  -19.0231 O   0  0  0  0  0  1  0  0  0  0  0  0
  -12.6574    0.6029  -19.5726 O   0  0  0  0  0  1  0  0  0  0  0  0
  -11.2780    3.7867  -23.5062 O   0  0  0  0  0  1  0  0  0  0  0  0
  -10.8249    6.8621  -22.4632 O   0  0  0  0  0  1  0  0  0  0  0  0
  1  2  1  0
  2  3  1  0
  3  4  2  0
  4  5  1  0
  5  6  1  0
  5  7  2  0
  7  8  1  0
  8  9  2  0
  8 10  1  0
 10 11  1  0
 11 12  2  0
 13 10  1  6
 13 14  1  0
 14 15  1  0
 15 16  1  0
 16 17  1  0
 17 18  1  1
 16 19  1  6
 15 20  1  6
 20 21  1  0
 21 22  1  0
 22 23  2  0
 22 24  1  0
 24 25  1  0
 25 26  2  0
 25 27  1  0
 27 28  1  0
 28 29  2  0
 28 30  1  0
 28 31  1  0
 25 32  1  6
 22 33  1  6
  9  3  1  0
 17 13  1  0
 12  7  1  0
M  CHG  4  30  -1  31  -1  32  -1  33  -1
M  END
$$$$
