
     RDKit          3D

 33 35  0  0  0  0  0  0  0  0999 V2000
   -8.0468    4.2114    6.6443 C   0  0  0  0  0  0  0  0  0  0  0  0
   -6.2878    3.7768    6.3724 S   0  0  0  0  0  0  0  0  0  0  0  0
   -5.7887    2.7859    7.7738 C   0  0  0  0  0  0  0  0  0  0  0  0
   -6.5980    2.5665    8.8235 N   0  0  0  0  0  0  0  0  0  0  0  0
   -6.2082    1.8181    9.8715 C   0  0  0  0  0  0  0  0  0  0  0  0
   -7.0711    1.5906   10.9790 N   0  0  0  0  0  0  0  0  0  0  0  0
   -4.9364    1.2830    9.8224 C   0  0  0  0  0  0  0  0  0  0  0  0
   -4.0833    1.4913    8.7577 C   0  0  0  0  0  0  0  0  0  0  0  0
   -4.5529    2.2555    7.7451 N   0  0  0  0  0  0  0  0  0  0  0  0
   -2.9127    0.8602    8.9648 N   0  0  0  0  0  0  0  0  0  0  0  0
   -3.0141    0.2541   10.1487 C   0  0  0  0  0  0  0  0  0  0  0  0
   -4.2280    0.4997   10.6778 N   0  0  0  0  0  0  0  0  0  0  0  0
   -1.8185    0.8892    8.0329 C   0  0  2  0  0  0  0  0  0  0  0  0
   -1.0151   -0.2170    8.0641 O   0  0  0  0  0  0  0  0  0  0  0  0
    0.2247    0.1122    7.5830 C   0  0  1  0  0  0  0  0  0  0  0  0
    0.2994    1.6106    7.4501 C   0  0  2  0  0  0  0  0  0  0  0  0
   -0.8587    2.0450    8.3264 C   0  0  1  0  0  0  0  0  0  0  0  0
   -1.3733    3.2626    7.9616 O   0  0  0  0  0  0  0  0  0  0  0  0
   -0.0369    1.9494    6.1394 O   0  0  0  0  0  0  0  0  0  0  0  0
    1.2668   -0.3291    8.5548 C   0  0  0  0  0  0  0  0  0  0  0  0
    1.1302    0.2606    9.8091 O   0  0  0  0  0  0  0  0  0  0  0  0
    1.7005   -0.7097   11.0408 P   0  0  1  0  0  5  0  0  0  0  0  0
    1.1575   -2.1091   11.0087 O   0  0  0  0  0  0  0  0  0  0  0  0
    3.4027   -0.6895   10.9735 O   0  0  0  0  0  0  0  0  0  0  0  0
    3.9281    0.3737   12.1858 P   0  0  2  0  0  5  0  0  0  0  0  0
    3.2190    0.0867   13.4945 O   0  0  0  0  0  0  0  0  0  0  0  0
    3.5964    1.9555   11.6538 O   0  0  0  0  0  0  0  0  0  0  0  0
    2.5579    2.6497   12.8055 P   0  0  0  0  0  5  0  0  0  0  0  0
    3.3239    3.0286   14.0574 O   0  0  0  0  0  0  0  0  0  0  0  0
    1.2979    1.5752   13.1619 O   0  0  0  0  0  1  0  0  0  0  0  0
    1.8437    4.0714   12.2012 O   0  0  0  0  0  1  0  0  0  0  0  0
    5.6068    0.1534   12.3737 O   0  0  0  0  0  1  0  0  0  0  0  0
    1.2317   -0.0215   12.5205 O   0  0  0  0  0  1  0  0  0  0  0  0
  1  2  1  0
  2  3  1  0
  3  4  2  0
  4  5  1  0
  5  6  1  0
  5  7  2  0
  7  8  1  0
  8  9  2  0
  8 10  1  0
 10 11  1  0
 11 12  2  0
 13 10  1  1
 13 14  1  0
 14 15  1  0
 15 16  1  0
 16 17  1  0
 17 18  1  6
 16 19  1  6
 15 20  1  1
 20 21  1  0
 21 22  1  0
 22 23  2  0
 22 24  1  0
 24 25  1  0
 25 26  2  0
 25 27  1  0
 27 28  1  0
 28 29  2  0
 28 30  1  0
 28 31  1  0
 25 32  1  1
 22 33  1  1
  9  3  1  0
 17 13  1  0
 12  7  1  0
M  CHG  4  30  -1  31  -1  32  -1  33  -1
M  END
$$$$
