
     RDKit          3D

 33 35  0  0  0  0  0  0  0  0999 V2000
    0.1264    8.6900  -35.4222 C   0  0  0  0  0  0  0  0  0  0  0  0
    1.1903    8.6128  -33.9325 S   0  0  0  0  0  0  0  0  0  0  0  0
    1.3489    6.8827  -33.5127 C   0  0  0  0  0  0  0  0  0  0  0  0
    0.7643    5.9117  -34.2340 N   0  0  0  0  0  0  0  0  0  0  0  0
    0.8927    4.6132  -33.9056 C   0  0  0  0  0  0  0  0  0  0  0  0
    0.2706    3.5911  -34.6746 N   0  0  0  0  0  0  0  0  0  0  0  0
    1.6536    4.3196  -32.7916 C   0  0  0  0  0  0  0  0  0  0  0  0
    2.2657    5.2957  -32.0317 C   0  0  0  0  0  0  0  0  0  0  0  0
    2.0863    6.5758  -32.4305 N   0  0  0  0  0  0  0  0  0  0  0  0
    2.9412    4.7387  -31.0095 N   0  0  0  0  0  0  0  0  0  0  0  0
    2.7643    3.4207  -31.1126 C   0  0  0  0  0  0  0  0  0  0  0  0
    1.9905    3.1527  -32.1819 N   0  0  0  0  0  0  0  0  0  0  0  0
    3.6833    5.4977  -30.0400 C   0  0  2  0  0  0  0  0  0  0  0  0
    4.7244    4.8229  -29.4649 O   0  0  0  0  0  0  0  0  0  0  0  0
    5.0058    5.3816  -28.2461 C   0  0  1  0  0  0  0  0  0  0  0  0
    3.9028    6.3476  -27.9011 C   0  0  2  0  0  0  0  0  0  0  0  0
    2.8087    5.9009  -28.8502 C   0  0  1  0  0  0  0  0  0  0  0  0
    1.9301    6.9074  -29.1593 O   0  0  0  0  0  0  0  0  0  0  0  0
    4.2960    7.6222  -28.3094 O   0  0  0  0  0  0  0  0  0  0  0  0
    5.0406    4.3124  -27.2066 C   0  0  0  0  0  0  0  0  0  0  0  0
    4.4142    3.1359  -27.6105 O   0  0  0  0  0  0  0  0  0  0  0  0
    3.8805    2.2177  -26.3237 P   0  0  1  0  0  5  0  0  0  0  0  0
    3.8147    2.9733  -25.0279 O   0  0  0  0  0  0  0  0  0  0  0  0
    2.3692    1.5558  -26.7480 O   0  0  0  0  0  0  0  0  0  0  0  0
    2.6405   -0.0708  -27.1437 P   0  0  2  0  0  5  0  0  0  0  0  0
    3.7288   -0.1929  -28.1919 O   0  0  0  0  0  0  0  0  0  0  0  0
    1.1716   -0.7055  -27.7220 O   0  0  0  0  0  0  0  0  0  0  0  0
    0.7759    0.1762  -29.1195 P   0  0  0  0  0  5  0  0  0  0  0  0
    2.0256    0.5286  -29.9017 O   0  0  0  0  0  0  0  0  0  0  0  0
   -0.0905    1.5677  -28.6927 O   0  0  0  0  0  1  0  0  0  0  0  0
   -0.2243   -0.7362  -30.1508 O   0  0  0  0  0  1  0  0  0  0  0  0
    3.1124   -0.8769  -25.7192 O   0  0  0  0  0  1  0  0  0  0  0  0
    4.9663    0.9312  -26.1017 O   0  0  0  0  0  1  0  0  0  0  0  0
  1  2  1  0
  2  3  1  0
  3  4  2  0
  4  5  1  0
  5  6  1  0
  5  7  2  0
  7  8  1  0
  8  9  2  0
  8 10  1  0
 10 11  1  0
 11 12  2  0
 13 10  1  6
 13 14  1  0
 14 15  1  0
 15 16  1  0
 16 17  1  0
 17 18  1  6
 16 19  1  6
 15 20  1  1
 20 21  1  0
 21 22  1  0
 22 23  2  0
 22 24  1  0
 24 25  1  0
 25 26  2  0
 25 27  1  0
 27 28  1  0
 28 29  2  0
 28 30  1  0
 28 31  1  0
 25 32  1  1
 22 33  1  1
  9  3  1  0
 17 13  1  0
 12  7  1  0
M  CHG  4  30  -1  31  -1  32  -1  33  -1
M  END
$$$$
