
     RDKit          3D

 33 35  0  0  0  0  0  0  0  0999 V2000
  -15.8508    3.9038   -6.8862 C   0  0  0  0  0  0  0  0  0  0  0  0
  -15.9325    3.4424   -8.6575 S   0  0  0  0  0  0  0  0  0  0  0  0
  -14.3069    3.7468   -9.3355 C   0  0  0  0  0  0  0  0  0  0  0  0
  -13.5300    4.7582   -8.9131 N   0  0  0  0  0  0  0  0  0  0  0  0
  -12.3081    4.9749   -9.4331 C   0  0  0  0  0  0  0  0  0  0  0  0
  -11.4917    6.0480   -8.9804 N   0  0  0  0  0  0  0  0  0  0  0  0
  -11.8847    4.1105  -10.4230 C   0  0  0  0  0  0  0  0  0  0  0  0
  -12.6608    3.0633  -10.8767 C   0  0  0  0  0  0  0  0  0  0  0  0
  -13.8760    2.9156  -10.3012 N   0  0  0  0  0  0  0  0  0  0  0  0
  -12.0119    2.3821  -11.8392 N   0  0  0  0  0  0  0  0  0  0  0  0
  -10.8334    2.9855  -12.0008 C   0  0  0  0  0  0  0  0  0  0  0  0
  -10.7420    4.0290  -11.1542 N   0  0  0  0  0  0  0  0  0  0  0  0
  -12.5619    1.2355  -12.5097 C   0  0  2  0  0  0  0  0  0  0  0  0
  -11.8624    0.8319  -13.6132 O   0  0  0  0  0  0  0  0  0  0  0  0
  -12.6982    0.1388  -14.4485 C   0  0  1  0  0  0  0  0  0  0  0  0
  -14.1111    0.3110  -13.9557 C   0  0  2  0  0  0  0  0  0  0  0  0
  -13.9653    1.5187  -13.0513 C   0  0  1  0  0  0  0  0  0  0  0  0
  -14.9137    1.5587  -12.0616 O   0  0  0  0  0  0  0  0  0  0  0  0
  -14.4216   -0.7731  -13.1346 O   0  0  0  0  0  0  0  0  0  0  0  0
  -12.6050    0.7055  -15.8252 C   0  0  0  0  0  0  0  0  0  0  0  0
  -13.3590    1.8645  -15.9921 O   0  0  0  0  0  0  0  0  0  0  0  0
  -13.1339    2.5676  -17.4883 P   0  0  1  0  0  5  0  0  0  0  0  0
  -12.3522    3.8487  -17.4429 O   0  0  0  0  0  0  0  0  0  0  0  0
  -12.3973    1.4122  -18.5007 O   0  0  0  0  0  0  0  0  0  0  0  0
  -12.6412    1.9327  -20.0962 P   0  0  2  0  0  5  0  0  0  0  0  0
  -14.0678    2.4058  -20.2934 O   0  0  0  0  0  0  0  0  0  0  0  0
  -12.2948    0.6175  -21.1188 O   0  0  0  0  0  0  0  0  0  0  0  0
  -12.9332    1.0049  -22.6449 P   0  0  0  0  0  5  0  0  0  0  0  0
  -14.4377    0.8198  -22.6583 O   0  0  0  0  0  0  0  0  0  0  0  0
  -12.1901    0.0551  -23.8345 O   0  0  0  0  0  1  0  0  0  0  0  0
  -12.6212    2.6308  -23.0394 O   0  0  0  0  0  1  0  0  0  0  0  0
  -11.5578    3.2132  -20.3930 O   0  0  0  0  0  1  0  0  0  0  0  0
  -14.6590    2.9313  -18.1401 O   0  0  0  0  0  1  0  0  0  0  0  0
  1  2  1  0
  2  3  1  0
  3  4  2  0
  4  5  1  0
  5  6  1  0
  5  7  2  0
  7  8  1  0
  8  9  2  0
  8 10  1  0
 10 11  1  0
 11 12  2  0
 13 10  1  6
 13 14  1  0
 14 15  1  0
 15 16  1  0
 16 17  1  0
 17 18  1  1
 16 19  1  1
 15 20  1  6
 20 21  1  0
 21 22  1  0
 22 23  2  0
 22 24  1  0
 24 25  1  0
 25 26  2  0
 25 27  1  0
 27 28  1  0
 28 29  2  0
 28 30  1  0
 28 31  1  0
 25 32  1  6
 22 33  1  6
  9  3  1  0
 17 13  1  0
 12  7  1  0
M  CHG  4  30  -1  31  -1  32  -1  33  -1
M  END
$$$$
