
     RDKit          3D

 33 35  0  0  0  0  0  0  0  0999 V2000
   -5.9325    0.4355    4.4996 C   0  0  0  0  0  0  0  0  0  0  0  0
   -6.5471   -1.0298    5.4118 S   0  0  0  0  0  0  0  0  0  0  0  0
   -5.8693   -0.9197    7.0621 C   0  0  0  0  0  0  0  0  0  0  0  0
   -6.3560   -1.6375    8.0881 N   0  0  0  0  0  0  0  0  0  0  0  0
   -5.8352   -1.5440    9.3253 C   0  0  0  0  0  0  0  0  0  0  0  0
   -6.3563   -2.3075   10.4063 N   0  0  0  0  0  0  0  0  0  0  0  0
   -4.7754   -0.6759    9.4963 C   0  0  0  0  0  0  0  0  0  0  0  0
   -4.2547    0.0740    8.4613 C   0  0  0  0  0  0  0  0  0  0  0  0
   -4.8360   -0.0792    7.2495 N   0  0  0  0  0  0  0  0  0  0  0  0
   -3.2327    0.8320    8.8999 N   0  0  0  0  0  0  0  0  0  0  0  0
   -3.0996    0.5713   10.2012 C   0  0  0  0  0  0  0  0  0  0  0  0
   -4.0223   -0.3356   10.5753 N   0  0  0  0  0  0  0  0  0  0  0  0
   -2.4851    1.7236    8.0556 C   0  0  2  0  0  0  0  0  0  0  0  0
   -1.1327    1.5211    8.0704 O   0  0  0  0  0  0  0  0  0  0  0  0
   -0.4991    2.6798    7.7059 C   0  0  1  0  0  0  0  0  0  0  0  0
   -1.5171    3.7896    7.6815 C   0  0  2  0  0  0  0  0  0  0  0  0
   -2.6402    3.1809    8.4973 C   0  0  1  0  0  0  0  0  0  0  0  0
   -3.8692    3.6998    8.1794 O   0  0  0  0  0  0  0  0  0  0  0  0
   -1.9905    3.9184    6.3756 O   0  0  0  0  0  0  0  0  0  0  0  0
    0.5425    3.0154    8.7196 C   0  0  0  0  0  0  0  0  0  0  0  0
    0.1110    2.8275   10.0304 O   0  0  0  0  0  0  0  0  0  0  0  0
    1.3659    2.8521   11.1297 P   0  0  1  0  0  5  0  0  0  0  0  0
    1.2152    1.8546   12.2416 O   0  0  0  0  0  0  0  0  0  0  0  0
    2.8175    2.6244   10.2675 O   0  0  0  0  0  0  0  0  0  0  0  0
    3.1637    0.9651   10.3209 P   0  0  2  0  0  5  0  0  0  0  0  0
    1.8942    0.1587   10.5107 O   0  0  0  0  0  0  0  0  0  0  0  0
    4.2391    0.7112   11.6148 O   0  0  0  0  0  0  0  0  0  0  0  0
    3.2923    0.6000   13.0212 P   0  0  0  0  0  5  0  0  0  0  0  0
    4.1683    0.3960   14.2414 O   0  0  0  0  0  0  0  0  0  0  0  0
    2.1696   -0.6578   12.8579 O   0  0  0  0  0  1  0  0  0  0  0  0
    2.4045    2.0304   13.2709 O   0  0  0  0  0  1  0  0  0  0  0  0
    3.9044    0.5444    8.8457 O   0  0  0  0  0  1  0  0  0  0  0  0
    1.4207    4.3934   11.8400 O   0  0  0  0  0  1  0  0  0  0  0  0
  1  2  1  0
  2  3  1  0
  3  4  2  0
  4  5  1  0
  5  6  1  0
  5  7  2  0
  7  8  1  0
  8  9  2  0
  8 10  1  0
 10 11  1  0
 11 12  2  0
 13 10  1  1
 13 14  1  0
 14 15  1  0
 15 16  1  0
 16 17  1  0
 17 18  1  6
 16 19  1  6
 15 20  1  1
 20 21  1  0
 21 22  1  0
 22 23  2  0
 22 24  1  0
 24 25  1  0
 25 26  2  0
 25 27  1  0
 27 28  1  0
 28 29  2  0
 28 30  1  0
 28 31  1  0
 25 32  1  6
 22 33  1  1
  9  3  1  0
 17 13  1  0
 12  7  1  0
M  CHG  4  30  -1  31  -1  32  -1  33  -1
M  END
$$$$
