
     RDKit          3D

 33 35  0  0  0  0  0  0  0  0999 V2000
    1.3059    0.4401   15.3299 C   0  0  0  0  0  0  0  0  0  0  0  0
    1.3027    0.8325   13.5402 S   0  0  0  0  0  0  0  0  0  0  0  0
   -0.1531    1.8258   13.2422 C   0  0  0  0  0  0  0  0  0  0  0  0
   -0.9143    2.3030   14.2412 N   0  0  0  0  0  0  0  0  0  0  0  0
   -2.0076    3.0496   14.0013 C   0  0  0  0  0  0  0  0  0  0  0  0
   -2.8082    3.5510   15.0646 N   0  0  0  0  0  0  0  0  0  0  0  0
   -2.3155    3.3056   12.6800 C   0  0  0  0  0  0  0  0  0  0  0  0
   -1.5524    2.8289   11.6335 C   0  0  0  0  0  0  0  0  0  0  0  0
   -0.4701    2.0865   11.9613 N   0  0  0  0  0  0  0  0  0  0  0  0
   -2.0728    3.2231   10.4565 N   0  0  0  0  0  0  0  0  0  0  0  0
   -3.1571    3.9443   10.7450 C   0  0  0  0  0  0  0  0  0  0  0  0
   -3.3165    4.0030   12.0810 N   0  0  0  0  0  0  0  0  0  0  0  0
   -1.5017    2.8840    9.1816 C   0  0  2  0  0  0  0  0  0  0  0  0
   -2.1601    3.4106    8.1050 O   0  0  0  0  0  0  0  0  0  0  0  0
   -1.9060    2.6413    7.0003 C   0  0  1  0  0  0  0  0  0  0  0  0
   -1.2168    1.3795    7.4493 C   0  0  2  0  0  0  0  0  0  0  0  0
   -1.5408    1.3746    8.9300 C   0  0  1  0  0  0  0  0  0  0  0  0
   -0.6131    0.6922    9.6744 O   0  0  0  0  0  0  0  0  0  0  0  0
    0.1603    1.5716    7.3379 O   0  0  0  0  0  0  0  0  0  0  0  0
   -3.1948    2.2698    6.3476 C   0  0  0  0  0  0  0  0  0  0  0  0
   -4.0563    1.5754    7.1933 O   0  0  0  0  0  0  0  0  0  0  0  0
   -5.6116    1.4881    6.5954 P   0  0  1  0  0  5  0  0  0  0  0  0
   -6.0585    2.7351    5.8886 O   0  0  0  0  0  0  0  0  0  0  0  0
   -5.7045    0.1198    5.5847 O   0  0  0  0  0  0  0  0  0  0  0  0
   -4.2960    0.1122    4.6401 P   0  0  2  0  0  5  0  0  0  0  0  0
   -3.9912    1.5036    4.1214 O   0  0  0  0  0  0  0  0  0  0  0  0
   -4.5534   -0.9691    3.3518 O   0  0  0  0  0  0  0  0  0  0  0  0
   -4.9244   -2.4750    4.0457 P   0  0  0  0  0  5  0  0  0  0  0  0
   -4.8281   -3.5791    3.0116 O   0  0  0  0  0  0  0  0  0  0  0  0
   -6.4686   -2.4209    4.7398 O   0  0  0  0  0  1  0  0  0  0  0  0
   -3.8310   -2.8552    5.2933 O   0  0  0  0  0  1  0  0  0  0  0  0
   -3.0174   -0.4345    5.6239 O   0  0  0  0  0  1  0  0  0  0  0  0
   -6.6700    1.2421    7.9001 O   0  0  0  0  0  1  0  0  0  0  0  0
  1  2  1  0
  2  3  1  0
  3  4  2  0
  4  5  1  0
  5  6  1  0
  5  7  2  0
  7  8  1  0
  8  9  2  0
  8 10  1  0
 10 11  1  0
 11 12  2  0
 13 10  1  1
 13 14  1  0
 14 15  1  0
 15 16  1  0
 16 17  1  0
 17 18  1  1
 16 19  1  1
 15 20  1  1
 20 21  1  0
 21 22  1  0
 22 23  2  0
 22 24  1  0
 24 25  1  0
 25 26  2  0
 25 27  1  0
 27 28  1  0
 28 29  2  0
 28 30  1  0
 28 31  1  0
 25 32  1  1
 22 33  1  1
  9  3  1  0
 17 13  1  0
 12  7  1  0
M  CHG  4  30  -1  31  -1  32  -1  33  -1
M  END
$$$$
