
     RDKit          3D

 33 35  0  0  0  0  0  0  0  0999 V2000
   -0.8053    7.3727   10.7186 C   0  0  0  0  0  0  0  0  0  0  0  0
   -2.4991    7.6561   11.3571 S   0  0  0  0  0  0  0  0  0  0  0  0
   -3.4516    6.2063   10.9262 C   0  0  0  0  0  0  0  0  0  0  0  0
   -4.7138    6.0240   11.3487 N   0  0  0  0  0  0  0  0  0  0  0  0
   -5.4186    4.9272   11.0160 C   0  0  0  0  0  0  0  0  0  0  0  0
   -6.7546    4.7418   11.4675 N   0  0  0  0  0  0  0  0  0  0  0  0
   -4.7873    3.9932   10.2188 C   0  0  0  0  0  0  0  0  0  0  0  0
   -3.4921    4.1535    9.7700 C   0  0  0  0  0  0  0  0  0  0  0  0
   -2.8543    5.2843   10.1500 N   0  0  0  0  0  0  0  0  0  0  0  0
   -3.1243    3.1015    9.0153 N   0  0  0  0  0  0  0  0  0  0  0  0
   -4.1715    2.2762    8.9807 C   0  0  0  0  0  0  0  0  0  0  0  0
   -5.1815    2.7999    9.7014 N   0  0  0  0  0  0  0  0  0  0  0  0
   -1.8293    2.9763    8.4037 C   0  0  2  0  0  0  0  0  0  0  0  0
   -1.7313    1.9738    7.4789 O   0  0  0  0  0  0  0  0  0  0  0  0
   -0.4207    1.5913    7.3654 C   0  0  1  0  0  0  0  0  0  0  0  0
    0.3602    2.2376    8.4794 C   0  0  2  0  0  0  0  0  0  0  0  0
   -0.7509    2.6293    9.4331 C   0  0  1  0  0  0  0  0  0  0  0  0
   -0.4177    3.6964   10.2272 O   0  0  0  0  0  0  0  0  0  0  0  0
    0.9123    3.4232    7.9940 O   0  0  0  0  0  0  0  0  0  0  0  0
   -0.3216    0.1105    7.5154 C   0  0  0  0  0  0  0  0  0  0  0  0
   -0.8547   -0.3550    8.7149 O   0  0  0  0  0  0  0  0  0  0  0  0
   -0.6987   -2.0070    8.8892 P   0  0  1  0  0  5  0  0  0  0  0  0
   -1.4324   -2.5616   10.0759 O   0  0  0  0  0  0  0  0  0  0  0  0
   -1.2065   -2.7340    7.4346 O   0  0  0  0  0  0  0  0  0  0  0  0
   -2.8979   -2.8371    7.5031 P   0  0  2  0  0  5  0  0  0  0  0  0
   -3.3974   -4.0054    6.6763 O   0  0  0  0  0  0  0  0  0  0  0  0
   -3.5214   -1.3687    6.9114 O   0  0  0  0  0  0  0  0  0  0  0  0
   -4.7544   -0.8962    7.9806 P   0  0  0  0  0  5  0  0  0  0  0  0
   -5.1447    0.5490    7.7423 O   0  0  0  0  0  0  0  0  0  0  0  0
   -4.2494   -1.1370    9.5794 O   0  0  0  0  0  1  0  0  0  0  0  0
   -6.1517   -1.8406    7.7523 O   0  0  0  0  0  1  0  0  0  0  0  0
   -3.3366   -3.0504    9.1352 O   0  0  0  0  0  1  0  0  0  0  0  0
    0.9471   -2.3664    9.1018 O   0  0  0  0  0  1  0  0  0  0  0  0
  1  2  1  0
  2  3  1  0
  3  4  2  0
  4  5  1  0
  5  6  1  0
  5  7  2  0
  7  8  1  0
  8  9  2  0
  8 10  1  0
 10 11  1  0
 11 12  2  0
 13 10  1  1
 13 14  1  0
 14 15  1  0
 15 16  1  0
 16 17  1  0
 17 18  1  6
 16 19  1  6
 15 20  1  1
 20 21  1  0
 21 22  1  0
 22 23  2  0
 22 24  1  0
 24 25  1  0
 25 26  2  0
 25 27  1  0
 27 28  1  0
 28 29  2  0
 28 30  1  0
 28 31  1  0
 25 32  1  1
 22 33  1  1
  9  3  1  0
 17 13  1  0
 12  7  1  0
M  CHG  4  30  -1  31  -1  32  -1  33  -1
M  END
$$$$
