
     RDKit          3D

 33 35  0  0  0  0  0  0  0  0999 V2000
    4.3869   -0.5164    8.6397 C   0  0  0  0  0  0  0  0  0  0  0  0
    4.6348   -0.2831   10.4400 S   0  0  0  0  0  0  0  0  0  0  0  0
    3.3531    0.8364   10.9867 C   0  0  0  0  0  0  0  0  0  0  0  0
    3.3144    1.3295   12.2358 N   0  0  0  0  0  0  0  0  0  0  0  0
    2.3429    2.1716   12.6329 C   0  0  0  0  0  0  0  0  0  0  0  0
    2.3091    2.6892   13.9572 N   0  0  0  0  0  0  0  0  0  0  0  0
    1.3839    2.5088   11.6987 C   0  0  0  0  0  0  0  0  0  0  0  0
    1.3981    2.0181   10.4089 C   0  0  0  0  0  0  0  0  0  0  0  0
    2.4091    1.1773   10.0912 N   0  0  0  0  0  0  0  0  0  0  0  0
    0.3545    2.5038    9.7113 N   0  0  0  0  0  0  0  0  0  0  0  0
   -0.3210    3.2969   10.5442 C   0  0  0  0  0  0  0  0  0  0  0  0
    0.2871    3.3101   11.7459 N   0  0  0  0  0  0  0  0  0  0  0  0
    0.0963    2.1755    8.3357 C   0  0  2  0  0  0  0  0  0  0  0  0
   -0.8144    2.9875    7.7183 O   0  0  0  0  0  0  0  0  0  0  0  0
   -1.3768    2.3155    6.6652 C   0  0  1  0  0  0  0  0  0  0  0  0
   -0.9673    0.8687    6.7525 C   0  0  2  0  0  0  0  0  0  0  0  0
   -0.5080    0.7762    8.1941 C   0  0  1  0  0  0  0  0  0  0  0  0
    0.4142   -0.2187    8.3950 O   0  0  0  0  0  0  0  0  0  0  0  0
    0.1633    0.6868    5.9560 O   0  0  0  0  0  0  0  0  0  0  0  0
   -2.8632    2.3933    6.7642 C   0  0  0  0  0  0  0  0  0  0  0  0
   -3.3640    1.8270    7.9339 O   0  0  0  0  0  0  0  0  0  0  0  0
   -4.7256    2.6110    8.4955 P   0  0  1  0  0  5  0  0  0  0  0  0
   -6.0108    2.0488    7.9605 O   0  0  0  0  0  0  0  0  0  0  0  0
   -4.6802    2.5774   10.1982 O   0  0  0  0  0  0  0  0  0  0  0  0
   -4.9517    0.9694   10.6637 P   0  0  2  0  0  5  0  0  0  0  0  0
   -5.6362    0.9111   12.0150 O   0  0  0  0  0  0  0  0  0  0  0  0
   -3.4383    0.1937   10.7199 O   0  0  0  0  0  0  0  0  0  0  0  0
   -2.9460   -0.0323    9.1095 P   0  0  0  0  0  5  0  0  0  0  0  0
   -2.6672    1.3003    8.4430 O   0  0  0  0  0  0  0  0  0  0  0  0
   -4.1296   -0.9018    8.2655 O   0  0  0  0  0  1  0  0  0  0  0  0
   -1.5107   -0.9439    9.0349 O   0  0  0  0  0  1  0  0  0  0  0  0
   -5.9413    0.2490    9.4792 O   0  0  0  0  0  1  0  0  0  0  0  0
   -4.6441    4.2349    8.0063 O   0  0  0  0  0  1  0  0  0  0  0  0
  1  2  1  0
  2  3  1  0
  3  4  2  0
  4  5  1  0
  5  6  1  0
  5  7  2  0
  7  8  1  0
  8  9  2  0
  8 10  1  0
 10 11  1  0
 11 12  2  0
 13 10  1  1
 13 14  1  0
 14 15  1  0
 15 16  1  0
 16 17  1  0
 17 18  1  6
 16 19  1  6
 15 20  1  1
 20 21  1  0
 21 22  1  0
 22 23  2  0
 22 24  1  0
 24 25  1  0
 25 26  2  0
 25 27  1  0
 27 28  1  0
 28 29  2  0
 28 30  1  0
 28 31  1  0
 25 32  1  6
 22 33  1  1
  9  3  1  0
 17 13  1  0
 12  7  1  0
M  CHG  4  30  -1  31  -1  32  -1  33  -1
M  END
$$$$
