
     RDKit          3D

 33 35  0  0  0  0  0  0  0  0999 V2000
    7.9042    8.5552  -31.5544 C   0  0  0  0  0  0  0  0  0  0  0  0
    7.4205    8.4345  -33.3175 S   0  0  0  0  0  0  0  0  0  0  0  0
    6.0480    7.2917  -33.3887 C   0  0  0  0  0  0  0  0  0  0  0  0
    5.4317    6.9797  -34.5410 N   0  0  0  0  0  0  0  0  0  0  0  0
    4.3995    6.1174  -34.5790 C   0  0  0  0  0  0  0  0  0  0  0  0
    3.7524    5.7924  -35.8032 N   0  0  0  0  0  0  0  0  0  0  0  0
    3.9988    5.5646  -33.3789 C   0  0  0  0  0  0  0  0  0  0  0  0
    4.6127    5.8662  -32.1802 C   0  0  0  0  0  0  0  0  0  0  0  0
    5.6424    6.7421  -32.2300 N   0  0  0  0  0  0  0  0  0  0  0  0
    4.0281    5.1929  -31.1721 N   0  0  0  0  0  0  0  0  0  0  0  0
    3.0507    4.4679  -31.7180 C   0  0  0  0  0  0  0  0  0  0  0  0
    3.0205    4.6813  -33.0474 N   0  0  0  0  0  0  0  0  0  0  0  0
    4.4444    5.2974  -29.8000 C   0  0  2  0  0  0  0  0  0  0  0  0
    4.6276    4.0985  -29.1682 O   0  0  0  0  0  0  0  0  0  0  0  0
    4.4881    4.2749  -27.8168 C   0  0  1  0  0  0  0  0  0  0  0  0
    3.9367    5.6552  -27.5730 C   0  0  2  0  0  0  0  0  0  0  0  0
    3.3906    6.0035  -28.9434 C   0  0  1  0  0  0  0  0  0  0  0  0
    3.3470    7.3553  -29.1700 O   0  0  0  0  0  0  0  0  0  0  0  0
    5.0076    6.5166  -27.3342 O   0  0  0  0  0  0  0  0  0  0  0  0
    3.5163    3.2764  -27.2841 C   0  0  0  0  0  0  0  0  0  0  0  0
    2.1961    3.7171  -27.3340 O   0  0  0  0  0  0  0  0  0  0  0  0
    1.1696    2.5948  -28.0201 P   0  0  1  0  0  5  0  0  0  0  0  0
    1.5071    2.2576  -29.4437 O   0  0  0  0  0  0  0  0  0  0  0  0
    1.1703    1.2121  -27.0248 O   0  0  0  0  0  0  0  0  0  0  0  0
    1.0282   -0.1303  -28.0514 P   0  0  2  0  0  5  0  0  0  0  0  0
   -0.4230   -0.3767  -28.4135 O   0  0  0  0  0  0  0  0  0  0  0  0
    1.6811   -1.4699  -27.2302 O   0  0  0  0  0  0  0  0  0  0  0  0
    0.9246   -1.5262  -25.7099 P   0  0  0  0  0  5  0  0  0  0  0  0
   -0.5618   -1.2601  -25.8416 O   0  0  0  0  0  0  0  0  0  0  0  0
    1.6549   -0.4107  -24.6651 O   0  0  0  0  0  1  0  0  0  0  0  0
    1.1012   -3.0628  -24.9997 O   0  0  0  0  0  1  0  0  0  0  0  0
    1.9308    0.1977  -29.4583 O   0  0  0  0  0  1  0  0  0  0  0  0
   -0.4019    3.2376  -28.0139 O   0  0  0  0  0  1  0  0  0  0  0  0
  1  2  1  0
  2  3  1  0
  3  4  2  0
  4  5  1  0
  5  6  1  0
  5  7  2  0
  7  8  1  0
  8  9  2  0
  8 10  1  0
 10 11  1  0
 11 12  2  0
 13 10  1  6
 13 14  1  0
 14 15  1  0
 15 16  1  0
 16 17  1  0
 17 18  1  6
 16 19  1  6
 15 20  1  6
 20 21  1  0
 21 22  1  0
 22 23  2  0
 22 24  1  0
 24 25  1  0
 25 26  2  0
 25 27  1  0
 27 28  1  0
 28 29  2  0
 28 30  1  0
 28 31  1  0
 25 32  1  6
 22 33  1  6
  9  3  1  0
 17 13  1  0
 12  7  1  0
M  CHG  4  30  -1  31  -1  32  -1  33  -1
M  END
$$$$
