
     RDKit          3D

 33 35  0  0  0  0  0  0  0  0999 V2000
   -4.0213   -3.0817  -25.2954 C   0  0  0  0  0  0  0  0  0  0  0  0
   -2.6208   -1.9990  -24.8232 S   0  0  0  0  0  0  0  0  0  0  0  0
   -2.4766   -0.7673  -26.1105 C   0  0  0  0  0  0  0  0  0  0  0  0
   -3.5239   -0.3860  -26.8606 N   0  0  0  0  0  0  0  0  0  0  0  0
   -3.3999    0.5428  -27.8263 C   0  0  0  0  0  0  0  0  0  0  0  0
   -4.5137    0.9410  -28.6163 N   0  0  0  0  0  0  0  0  0  0  0  0
   -2.1462    1.0894  -28.0145 C   0  0  0  0  0  0  0  0  0  0  0  0
   -1.0525    0.7173  -27.2594 C   0  0  0  0  0  0  0  0  0  0  0  0
   -1.2630   -0.2226  -26.3095 N   0  0  0  0  0  0  0  0  0  0  0  0
    0.0397    1.4011  -27.6481 N   0  0  0  0  0  0  0  0  0  0  0  0
   -0.3492    2.2024  -28.6410 C   0  0  0  0  0  0  0  0  0  0  0  0
   -1.6640    2.0259  -28.8733 N   0  0  0  0  0  0  0  0  0  0  0  0
    1.3363    1.2341  -27.0501 C   0  0  2  0  0  0  0  0  0  0  0  0
    1.8690    2.3758  -26.5185 O   0  0  0  0  0  0  0  0  0  0  0  0
    3.2333    2.2594  -26.4749 C   0  0  1  0  0  0  0  0  0  0  0  0
    3.6303    1.0371  -27.2606 C   0  0  2  0  0  0  0  0  0  0  0  0
    2.3788    0.7906  -28.0795 C   0  0  1  0  0  0  0  0  0  0  0  0
    2.2331   -0.5232  -28.4445 O   0  0  0  0  0  0  0  0  0  0  0  0
    3.7491   -0.0323  -26.3728 O   0  0  0  0  0  0  0  0  0  0  0  0
    3.8537    3.4554  -27.1150 C   0  0  0  0  0  0  0  0  0  0  0  0
    4.3002    3.2123  -28.4116 O   0  0  0  0  0  0  0  0  0  0  0  0
    3.5317    4.1654  -29.5451 P   0  0  1  0  0  5  0  0  0  0  0  0
    2.3027    4.8526  -29.0239 O   0  0  0  0  0  0  0  0  0  0  0  0
    4.6717    5.2786  -30.1480 O   0  0  0  0  0  0  0  0  0  0  0  0
    5.7108    4.4107  -31.1694 P   0  0  2  0  0  5  0  0  0  0  0  0
    5.2924    2.9558  -31.2486 O   0  0  0  0  0  0  0  0  0  0  0  0
    7.2832    4.5528  -30.5350 O   0  0  0  0  0  0  0  0  0  0  0  0
    7.7046    6.1954  -30.6391 P   0  0  0  0  0  5  0  0  0  0  0  0
    6.4643    7.0668  -30.6449 O   0  0  0  0  0  0  0  0  0  0  0  0
    8.6431    6.4592  -32.0244 O   0  0  0  0  0  1  0  0  0  0  0  0
    8.6466    6.6672  -29.3024 O   0  0  0  0  0  1  0  0  0  0  0  0
    5.6304    5.1236  -32.7144 O   0  0  0  0  0  1  0  0  0  0  0  0
    3.0450    3.1722  -30.8334 O   0  0  0  0  0  1  0  0  0  0  0  0
  1  2  1  0
  2  3  1  0
  3  4  2  0
  4  5  1  0
  5  6  1  0
  5  7  2  0
  7  8  1  0
  8  9  2  0
  8 10  1  0
 10 11  1  0
 11 12  2  0
 13 10  1  6
 13 14  1  0
 14 15  1  0
 15 16  1  0
 16 17  1  0
 17 18  1  1
 16 19  1  1
 15 20  1  6
 20 21  1  0
 21 22  1  0
 22 23  2  0
 22 24  1  0
 24 25  1  0
 25 26  2  0
 25 27  1  0
 27 28  1  0
 28 29  2  0
 28 30  1  0
 28 31  1  0
 25 32  1  6
 22 33  1  6
  9  3  1  0
 17 13  1  0
 12  7  1  0
M  CHG  4  30  -1  31  -1  32  -1  33  -1
M  END
$$$$
