
     RDKit          3D

 33 35  0  0  0  0  0  0  0  0999 V2000
   -4.2831   15.4745   -3.7742 C   0  0  0  0  0  0  0  0  0  0  0  0
   -5.5055   15.2893   -5.1263 S   0  0  0  0  0  0  0  0  0  0  0  0
   -4.6401   14.5234   -6.4899 C   0  0  0  0  0  0  0  0  0  0  0  0
   -5.2812   13.8577   -7.4649 N   0  0  0  0  0  0  0  0  0  0  0  0
   -4.6159   13.2862   -8.4853 C   0  0  0  0  0  0  0  0  0  0  0  0
   -5.3023   12.5830   -9.5137 N   0  0  0  0  0  0  0  0  0  0  0  0
   -3.2412   13.4135   -8.4882 C   0  0  0  0  0  0  0  0  0  0  0  0
   -2.5558   14.0913   -7.5005 C   0  0  0  0  0  0  0  0  0  0  0  0
   -3.2999   14.6362   -6.5109 N   0  0  0  0  0  0  0  0  0  0  0  0
   -1.2325   14.0635   -7.7450 N   0  0  0  0  0  0  0  0  0  0  0  0
   -1.0713   13.3758   -8.8765 C   0  0  0  0  0  0  0  0  0  0  0  0
   -2.2729   12.9775   -9.3364 N   0  0  0  0  0  0  0  0  0  0  0  0
   -0.2539   14.6837   -6.8940 C   0  0  2  0  0  0  0  0  0  0  0  0
    0.2376   15.8705   -7.3629 O   0  0  0  0  0  0  0  0  0  0  0  0
    1.4731   16.0950   -6.8152 C   0  0  1  0  0  0  0  0  0  0  0  0
    1.9185   14.8365   -6.1177 C   0  0  2  0  0  0  0  0  0  0  0  0
    0.9927   13.8091   -6.7381 C   0  0  1  0  0  0  0  0  0  0  0  0
    0.7784   12.7268   -5.9237 O   0  0  0  0  0  0  0  0  0  0  0  0
    1.5668   14.9363   -4.7715 O   0  0  0  0  0  0  0  0  0  0  0  0
    2.4480   16.4046   -7.9009 C   0  0  0  0  0  0  0  0  0  0  0  0
    1.9268   16.2066   -9.1771 O   0  0  0  0  0  0  0  0  0  0  0  0
    2.6067   17.2217  -10.3134 P   0  0  1  0  0  5  0  0  0  0  0  0
    2.8897   18.6031   -9.7977 O   0  0  0  0  0  0  0  0  0  0  0  0
    4.0135   16.4679  -10.9092 O   0  0  0  0  0  0  0  0  0  0  0  0
    3.9787   16.6300  -12.5970 P   0  0  2  0  0  5  0  0  0  0  0  0
    4.8346   17.7999  -13.0406 O   0  0  0  0  0  0  0  0  0  0  0  0
    2.3559   16.8627  -13.0522 O   0  0  0  0  0  0  0  0  0  0  0  0
    2.3330   16.9502  -14.7489 P   0  0  0  0  0  5  0  0  0  0  0  0
    3.4783   17.8038  -15.2562 O   0  0  0  0  0  0  0  0  0  0  0  0
    0.8404   17.5575  -15.2710 O   0  0  0  0  0  1  0  0  0  0  0  0
    2.5108   15.4050  -15.4396 O   0  0  0  0  0  1  0  0  0  0  0  0
    4.5789   15.1836  -13.2671 O   0  0  0  0  0  1  0  0  0  0  0  0
    1.5164   17.3802  -11.6054 O   0  0  0  0  0  1  0  0  0  0  0  0
  1  2  1  0
  2  3  1  0
  3  4  2  0
  4  5  1  0
  5  6  1  0
  5  7  2  0
  7  8  1  0
  8  9  2  0
  8 10  1  0
 10 11  1  0
 11 12  2  0
 13 10  1  6
 13 14  1  0
 14 15  1  0
 15 16  1  0
 16 17  1  0
 17 18  1  1
 16 19  1  1
 15 20  1  6
 20 21  1  0
 21 22  1  0
 22 23  2  0
 22 24  1  0
 24 25  1  0
 25 26  2  0
 25 27  1  0
 27 28  1  0
 28 29  2  0
 28 30  1  0
 28 31  1  0
 25 32  1  6
 22 33  1  6
  9  3  1  0
 17 13  1  0
 12  7  1  0
M  CHG  4  30  -1  31  -1  32  -1  33  -1
M  END
$$$$
