
     RDKit          3D

 33 35  0  0  0  0  0  0  0  0999 V2000
   -4.6481    3.9664    4.2705 C   0  0  0  0  0  0  0  0  0  0  0  0
   -5.7623    4.9717    5.3217 S   0  0  0  0  0  0  0  0  0  0  0  0
   -5.7892    4.1862    6.9270 C   0  0  0  0  0  0  0  0  0  0  0  0
   -6.8056    4.3497    7.7901 N   0  0  0  0  0  0  0  0  0  0  0  0
   -6.8118    3.7516    8.9954 C   0  0  0  0  0  0  0  0  0  0  0  0
   -7.8919    3.9299    9.9035 N   0  0  0  0  0  0  0  0  0  0  0  0
   -5.7251    2.9598    9.3090 C   0  0  0  0  0  0  0  0  0  0  0  0
   -4.6670    2.7735    8.4427 C   0  0  0  0  0  0  0  0  0  0  0  0
   -4.7393    3.4104    7.2515 N   0  0  0  0  0  0  0  0  0  0  0  0
   -3.7473    1.9604    8.9946 N   0  0  0  0  0  0  0  0  0  0  0  0
   -4.2104    1.6291   10.2007 C   0  0  0  0  0  0  0  0  0  0  0  0
   -5.4015    2.2237   10.4047 N   0  0  0  0  0  0  0  0  0  0  0  0
   -2.5284    1.5767    8.3360 C   0  0  2  0  0  0  0  0  0  0  0  0
   -2.2448    0.2404    8.3975 O   0  0  0  0  0  0  0  0  0  0  0  0
   -0.8954    0.0582    8.2459 C   0  0  1  0  0  0  0  0  0  0  0  0
   -0.2229    1.4034    8.3289 C   0  0  2  0  0  0  0  0  0  0  0  0
   -1.3075    2.2384    8.9800 C   0  0  1  0  0  0  0  0  0  0  0  0
   -1.2076    3.5713    8.6734 O   0  0  0  0  0  0  0  0  0  0  0  0
   -0.0618    1.8910    7.0319 O   0  0  0  0  0  0  0  0  0  0  0  0
   -0.3827   -0.7964    9.3558 C   0  0  0  0  0  0  0  0  0  0  0  0
   -0.5767   -0.2331   10.6146 O   0  0  0  0  0  0  0  0  0  0  0  0
   -0.3563   -1.3316   11.8510 P   0  0  1  0  0  5  0  0  0  0  0  0
   -0.8180   -2.7202   11.5153 O   0  0  0  0  0  0  0  0  0  0  0  0
    1.2900   -1.3001   12.2878 O   0  0  0  0  0  0  0  0  0  0  0  0
    1.6742    0.3151   12.6335 P   0  0  2  0  0  5  0  0  0  0  0  0
    1.5667    1.1702   11.3864 O   0  0  0  0  0  0  0  0  0  0  0  0
    3.2608    0.3403   13.2477 O   0  0  0  0  0  0  0  0  0  0  0  0
    4.2383    1.0369   12.0451 P   0  0  0  0  0  5  0  0  0  0  0  0
    4.6455   -0.0014   11.0185 O   0  0  0  0  0  0  0  0  0  0  0  0
    5.5959    1.7576   12.7569 O   0  0  0  0  0  1  0  0  0  0  0  0
    3.4002    2.2645   11.2163 O   0  0  0  0  0  1  0  0  0  0  0  0
    0.5753    0.8662   13.8127 O   0  0  0  0  0  1  0  0  0  0  0  0
   -1.2588   -0.8113   13.1918 O   0  0  0  0  0  1  0  0  0  0  0  0
  1  2  1  0
  2  3  1  0
  3  4  2  0
  4  5  1  0
  5  6  1  0
  5  7  2  0
  7  8  1  0
  8  9  2  0
  8 10  1  0
 10 11  1  0
 11 12  2  0
 13 10  1  1
 13 14  1  0
 14 15  1  0
 15 16  1  0
 16 17  1  0
 17 18  1  6
 16 19  1  6
 15 20  1  1
 20 21  1  0
 21 22  1  0
 22 23  2  0
 22 24  1  0
 24 25  1  0
 25 26  2  0
 25 27  1  0
 27 28  1  0
 28 29  2  0
 28 30  1  0
 28 31  1  0
 25 32  1  1
 22 33  1  1
  9  3  1  0
 17 13  1  0
 12  7  1  0
M  CHG  4  30  -1  31  -1  32  -1  33  -1
M  END
$$$$
