
     RDKit          3D

 33 35  0  0  0  0  0  0  0  0999 V2000
   -7.4490    2.4185    4.5846 C   0  0  0  0  0  0  0  0  0  0  0  0
   -6.1417    1.2753    5.1684 S   0  0  0  0  0  0  0  0  0  0  0  0
   -5.6848    1.8232    6.8073 C   0  0  0  0  0  0  0  0  0  0  0  0
   -6.5863    2.2950    7.6846 N   0  0  0  0  0  0  0  0  0  0  0  0
   -6.2272    2.7039    8.9152 C   0  0  0  0  0  0  0  0  0  0  0  0
   -7.1878    3.2022    9.8382 N   0  0  0  0  0  0  0  0  0  0  0  0
   -4.8879    2.6178    9.2395 C   0  0  0  0  0  0  0  0  0  0  0  0
   -3.9397    2.1376    8.3591 C   0  0  0  0  0  0  0  0  0  0  0  0
   -4.3844    1.7473    7.1426 N   0  0  0  0  0  0  0  0  0  0  0  0
   -2.7193    2.1616    8.9260 N   0  0  0  0  0  0  0  0  0  0  0  0
   -2.8830    2.6516   10.1558 C   0  0  0  0  0  0  0  0  0  0  0  0
   -4.1846    2.9313   10.3594 N   0  0  0  0  0  0  0  0  0  0  0  0
   -1.5240    1.7234    8.2582 C   0  0  2  0  0  0  0  0  0  0  0  0
   -0.5762    1.1843    9.0834 O   0  0  0  0  0  0  0  0  0  0  0  0
    0.6546    1.3005    8.4932 C   0  0  1  0  0  0  0  0  0  0  0  0
    0.5219    2.2001    7.2924 C   0  0  2  0  0  0  0  0  0  0  0  0
   -0.7976    2.8882    7.5809 C   0  0  1  0  0  0  0  0  0  0  0  0
   -1.4334    3.3158    6.4436 O   0  0  0  0  0  0  0  0  0  0  0  0
    0.3222    1.3994    6.1677 O   0  0  0  0  0  0  0  0  0  0  0  0
    1.6074    1.9299    9.4529 C   0  0  0  0  0  0  0  0  0  0  0  0
    2.5485    1.0351    9.9561 O   0  0  0  0  0  0  0  0  0  0  0  0
    3.1645    1.5125   11.4313 P   0  0  1  0  0  5  0  0  0  0  0  0
    3.6801    2.9226   11.4435 O   0  0  0  0  0  0  0  0  0  0  0  0
    1.9524    1.2716   12.6039 O   0  0  0  0  0  0  0  0  0  0  0  0
    2.2500   -0.2401   13.3126 P   0  0  2  0  0  5  0  0  0  0  0  0
    2.3575   -1.3174   12.2515 O   0  0  0  0  0  0  0  0  0  0  0  0
    0.9619   -0.5661   14.3754 O   0  0  0  0  0  0  0  0  0  0  0  0
   -0.4706   -0.2811   13.5073 P   0  0  0  0  0  5  0  0  0  0  0  0
   -0.2721   -0.5788   12.0343 O   0  0  0  0  0  0  0  0  0  0  0  0
   -0.9757    1.3182   13.7448 O   0  0  0  0  0  1  0  0  0  0  0  0
   -1.7269   -1.2872   14.0606 O   0  0  0  0  0  1  0  0  0  0  0  0
    3.7140   -0.1264   14.1759 O   0  0  0  0  0  1  0  0  0  0  0  0
    4.4689    0.4962   11.8172 O   0  0  0  0  0  1  0  0  0  0  0  0
  1  2  1  0
  2  3  1  0
  3  4  2  0
  4  5  1  0
  5  6  1  0
  5  7  2  0
  7  8  1  0
  8  9  2  0
  8 10  1  0
 10 11  1  0
 11 12  2  0
 13 10  1  1
 13 14  1  0
 14 15  1  0
 15 16  1  0
 16 17  1  0
 17 18  1  6
 16 19  1  6
 15 20  1  1
 20 21  1  0
 21 22  1  0
 22 23  2  0
 22 24  1  0
 24 25  1  0
 25 26  2  0
 25 27  1  0
 27 28  1  0
 28 29  2  0
 28 30  1  0
 28 31  1  0
 25 32  1  1
 22 33  1  1
  9  3  1  0
 17 13  1  0
 12  7  1  0
M  CHG  4  30  -1  31  -1  32  -1  33  -1
M  END
$$$$
