
     RDKit          3D

 33 35  0  0  0  0  0  0  0  0999 V2000
   -3.9530   -0.3133  -21.5502 C   0  0  0  0  0  0  0  0  0  0  0  0
   -5.4499    0.5363  -22.1781 S   0  0  0  0  0  0  0  0  0  0  0  0
   -5.0325    1.1664  -23.7979 C   0  0  0  0  0  0  0  0  0  0  0  0
   -5.9618    1.3999  -24.7395 N   0  0  0  0  0  0  0  0  0  0  0  0
   -5.6323    1.8745  -25.9547 C   0  0  0  0  0  0  0  0  0  0  0  0
   -6.6224    2.1190  -26.9462 N   0  0  0  0  0  0  0  0  0  0  0  0
   -4.2935    2.1123  -26.1939 C   0  0  0  0  0  0  0  0  0  0  0  0
   -3.3171    1.8820  -25.2462 C   0  0  0  0  0  0  0  0  0  0  0  0
   -3.7331    1.4047  -24.0507 N   0  0  0  0  0  0  0  0  0  0  0  0
   -2.1040    2.1963  -25.7374 N   0  0  0  0  0  0  0  0  0  0  0  0
   -2.3004    2.6232  -26.9857 C   0  0  0  0  0  0  0  0  0  0  0  0
   -3.6149    2.5784  -27.2753 N   0  0  0  0  0  0  0  0  0  0  0  0
   -0.8845    2.0645  -24.9876 C   0  0  2  0  0  0  0  0  0  0  0  0
    0.1209    2.9019  -25.3848 O   0  0  0  0  0  0  0  0  0  0  0  0
    1.3268    2.3633  -25.0208 C   0  0  1  0  0  0  0  0  0  0  0  0
    1.0944    0.9484  -24.5593 C   0  0  2  0  0  0  0  0  0  0  0  0
   -0.2772    0.6677  -25.1402 C   0  0  1  0  0  0  0  0  0  0  0  0
   -0.9668   -0.2863  -24.4367 O   0  0  0  0  0  0  0  0  0  0  0  0
    0.9507    0.9604  -23.1719 O   0  0  0  0  0  0  0  0  0  0  0  0
    2.2335    2.3318  -26.2049 C   0  0  0  0  0  0  0  0  0  0  0  0
    1.7000    1.6317  -27.2842 O   0  0  0  0  0  0  0  0  0  0  0  0
    2.4960    1.9527  -28.7150 P   0  0  1  0  0  5  0  0  0  0  0  0
    1.9138    3.1019  -29.4860 O   0  0  0  0  0  0  0  0  0  0  0  0
    4.1411    2.2038  -28.3502 O   0  0  0  0  0  0  0  0  0  0  0  0
    4.9916    2.0781  -29.8120 P   0  0  2  0  0  5  0  0  0  0  0  0
    5.9880    0.9371  -29.7559 O   0  0  0  0  0  0  0  0  0  0  0  0
    5.7860    3.5610  -30.0675 O   0  0  0  0  0  0  0  0  0  0  0  0
    6.7751    3.3554  -31.4335 P   0  0  0  0  0  5  0  0  0  0  0  0
    6.0837    3.8754  -32.6781 O   0  0  0  0  0  0  0  0  0  0  0  0
    7.1876    1.7211  -31.6013 O   0  0  0  0  0  1  0  0  0  0  0  0
    8.2307    4.2214  -31.2657 O   0  0  0  0  0  1  0  0  0  0  0  0
    3.8543    1.7964  -31.0485 O   0  0  0  0  0  1  0  0  0  0  0  0
    2.3881    0.5767  -29.7040 O   0  0  0  0  0  1  0  0  0  0  0  0
  1  2  1  0
  2  3  1  0
  3  4  2  0
  4  5  1  0
  5  6  1  0
  5  7  2  0
  7  8  1  0
  8  9  2  0
  8 10  1  0
 10 11  1  0
 11 12  2  0
 13 10  1  6
 13 14  1  0
 14 15  1  0
 15 16  1  0
 16 17  1  0
 17 18  1  1
 16 19  1  1
 15 20  1  6
 20 21  1  0
 21 22  1  0
 22 23  2  0
 22 24  1  0
 24 25  1  0
 25 26  2  0
 25 27  1  0
 27 28  1  0
 28 29  2  0
 28 30  1  0
 28 31  1  0
 25 32  1  6
 22 33  1  6
  9  3  1  0
 17 13  1  0
 12  7  1  0
M  CHG  4  30  -1  31  -1  32  -1  33  -1
M  END
$$$$
