
     RDKit          3D

 33 35  0  0  0  0  0  0  0  0999 V2000
   -3.3249   14.2120   -3.7302 C   0  0  0  0  0  0  0  0  0  0  0  0
   -2.0562   14.9853   -4.8022 S   0  0  0  0  0  0  0  0  0  0  0  0
   -2.1803   14.1816   -6.3940 C   0  0  0  0  0  0  0  0  0  0  0  0
   -2.8303   13.0181   -6.5628 N   0  0  0  0  0  0  0  0  0  0  0  0
   -2.9153   12.4249   -7.7676 C   0  0  0  0  0  0  0  0  0  0  0  0
   -3.6054   11.1929   -7.9379 N   0  0  0  0  0  0  0  0  0  0  0  0
   -2.3039   13.0651   -8.8271 C   0  0  0  0  0  0  0  0  0  0  0  0
   -1.6294   14.2606   -8.6837 C   0  0  0  0  0  0  0  0  0  0  0  0
   -1.5911   14.7895   -7.4392 N   0  0  0  0  0  0  0  0  0  0  0  0
   -1.1314   14.6624   -9.8677 N   0  0  0  0  0  0  0  0  0  0  0  0
   -1.4825   13.7353  -10.7601 C   0  0  0  0  0  0  0  0  0  0  0  0
   -2.1896   12.7662  -10.1480 N   0  0  0  0  0  0  0  0  0  0  0  0
   -0.3772   15.8737  -10.0427 C   0  0  2  0  0  0  0  0  0  0  0  0
   -0.2634   16.2907  -11.3401 O   0  0  0  0  0  0  0  0  0  0  0  0
    0.8522   17.0760  -11.4653 C   0  0  1  0  0  0  0  0  0  0  0  0
    1.6554   16.9649  -10.1960 C   0  0  2  0  0  0  0  0  0  0  0  0
    1.0739   15.7052   -9.5855 C   0  0  1  0  0  0  0  0  0  0  0  0
    1.1955   15.6717   -8.2200 O   0  0  0  0  0  0  0  0  0  0  0  0
    1.2968   18.0218   -9.3591 O   0  0  0  0  0  0  0  0  0  0  0  0
    1.6853   16.5770  -12.5975 C   0  0  0  0  0  0  0  0  0  0  0  0
    1.5602   15.2057  -12.8062 O   0  0  0  0  0  0  0  0  0  0  0  0
    1.4902   14.8058  -14.4245 P   0  0  1  0  0  5  0  0  0  0  0  0
    0.1856   15.1587  -15.0786 O   0  0  0  0  0  0  0  0  0  0  0  0
    2.8101   15.5508  -15.2022 O   0  0  0  0  0  0  0  0  0  0  0  0
    2.1750   16.8032  -16.1532 P   0  0  2  0  0  5  0  0  0  0  0  0
    0.9069   17.3562  -15.5336 O   0  0  0  0  0  0  0  0  0  0  0  0
    1.8616   16.1605  -17.6973 O   0  0  0  0  0  0  0  0  0  0  0  0
    1.9231   17.4613  -18.7886 P   0  0  0  0  0  5  0  0  0  0  0  0
    0.9467   18.5473  -18.3825 O   0  0  0  0  0  0  0  0  0  0  0  0
    1.6040   16.9082  -20.3575 O   0  0  0  0  0  1  0  0  0  0  0  0
    3.4744   18.1610  -18.8135 O   0  0  0  0  0  1  0  0  0  0  0  0
    3.3558   18.0270  -16.2511 O   0  0  0  0  0  1  0  0  0  0  0  0
    1.6859   13.1251  -14.5660 O   0  0  0  0  0  1  0  0  0  0  0  0
  1  2  1  0
  2  3  1  0
  3  4  2  0
  4  5  1  0
  5  6  1  0
  5  7  2  0
  7  8  1  0
  8  9  2  0
  8 10  1  0
 10 11  1  0
 11 12  2  0
 13 10  1  6
 13 14  1  0
 14 15  1  0
 15 16  1  0
 16 17  1  0
 17 18  1  1
 16 19  1  1
 15 20  1  6
 20 21  1  0
 21 22  1  0
 22 23  2  0
 22 24  1  0
 24 25  1  0
 25 26  2  0
 25 27  1  0
 27 28  1  0
 28 29  2  0
 28 30  1  0
 28 31  1  0
 25 32  1  6
 22 33  1  1
  9  3  1  0
 17 13  1  0
 12  7  1  0
M  CHG  4  30  -1  31  -1  32  -1  33  -1
M  END
$$$$
