
     RDKit          3D

 33 35  0  0  0  0  0  0  0  0999 V2000
  -14.9202   -2.6500  -18.5885 C   0  0  0  0  0  0  0  0  0  0  0  0
  -15.6340   -4.2132  -19.2240 S   0  0  0  0  0  0  0  0  0  0  0  0
  -14.6969   -4.6407  -20.6847 C   0  0  0  0  0  0  0  0  0  0  0  0
  -14.8518   -5.8144  -21.3198 N   0  0  0  0  0  0  0  0  0  0  0  0
  -14.1389   -6.1222  -22.4187 C   0  0  0  0  0  0  0  0  0  0  0  0
  -14.3089   -7.3671  -23.0854 N   0  0  0  0  0  0  0  0  0  0  0  0
  -13.2380   -5.1773  -22.8678 C   0  0  0  0  0  0  0  0  0  0  0  0
  -13.0575   -3.9636  -22.2360 C   0  0  0  0  0  0  0  0  0  0  0  0
  -13.8137   -3.7333  -21.1382 N   0  0  0  0  0  0  0  0  0  0  0  0
  -12.1247   -3.2357  -22.8774 N   0  0  0  0  0  0  0  0  0  0  0  0
  -11.7118   -3.9741  -23.9086 C   0  0  0  0  0  0  0  0  0  0  0  0
  -12.3736   -5.1471  -23.9160 N   0  0  0  0  0  0  0  0  0  0  0  0
  -11.7150   -1.9228  -22.4590 C   0  0  2  0  0  0  0  0  0  0  0  0
  -11.5255   -1.0335  -23.4804 O   0  0  0  0  0  0  0  0  0  0  0  0
  -10.6630   -0.0516  -23.0693 C   0  0  1  0  0  0  0  0  0  0  0  0
  -10.0616   -0.4690  -21.7530 C   0  0  2  0  0  0  0  0  0  0  0  0
  -10.3599   -1.9552  -21.7478 C   0  0  1  0  0  0  0  0  0  0  0  0
  -10.4416   -2.4761  -20.4820 O   0  0  0  0  0  0  0  0  0  0  0  0
  -10.8190    0.0984  -20.7281 O   0  0  0  0  0  0  0  0  0  0  0  0
   -9.5637    0.0925  -24.0673 C   0  0  0  0  0  0  0  0  0  0  0  0
   -8.4142   -0.6134  -23.7208 O   0  0  0  0  0  0  0  0  0  0  0  0
   -7.3518   -0.7773  -24.9969 P   0  0  1  0  0  5  0  0  0  0  0  0
   -7.6470   -1.9536  -25.8820 O   0  0  0  0  0  0  0  0  0  0  0  0
   -7.3548    0.6868  -25.8679 O   0  0  0  0  0  0  0  0  0  0  0  0
   -5.8360    0.8179  -26.6108 P   0  0  2  0  0  5  0  0  0  0  0  0
   -5.2130   -0.5509  -26.8018 O   0  0  0  0  0  0  0  0  0  0  0  0
   -4.8622    1.7898  -25.6097 O   0  0  0  0  0  0  0  0  0  0  0  0
   -3.3015    1.7714  -26.2809 P   0  0  0  0  0  5  0  0  0  0  0  0
   -2.2535    1.9741  -25.2046 O   0  0  0  0  0  0  0  0  0  0  0  0
   -3.1808    2.9591  -27.4826 O   0  0  0  0  0  1  0  0  0  0  0  0
   -2.9775    0.2755  -27.0252 O   0  0  0  0  0  1  0  0  0  0  0  0
   -6.0637    1.5690  -28.1226 O   0  0  0  0  0  1  0  0  0  0  0  0
   -5.7919   -1.0016  -24.3648 O   0  0  0  0  0  1  0  0  0  0  0  0
  1  2  1  0
  2  3  1  0
  3  4  2  0
  4  5  1  0
  5  6  1  0
  5  7  2  0
  7  8  1  0
  8  9  2  0
  8 10  1  0
 10 11  1  0
 11 12  2  0
 13 10  1  6
 13 14  1  0
 14 15  1  0
 15 16  1  0
 16 17  1  0
 17 18  1  1
 16 19  1  1
 15 20  1  6
 20 21  1  0
 21 22  1  0
 22 23  2  0
 22 24  1  0
 24 25  1  0
 25 26  2  0
 25 27  1  0
 27 28  1  0
 28 29  2  0
 28 30  1  0
 28 31  1  0
 25 32  1  6
 22 33  1  1
  9  3  1  0
 17 13  1  0
 12  7  1  0
M  CHG  4  30  -1  31  -1  32  -1  33  -1
M  END
$$$$
