
     RDKit          3D

 33 35  0  0  0  0  0  0  0  0999 V2000
   -1.1217    8.3434    9.6158 C   0  0  0  0  0  0  0  0  0  0  0  0
   -1.9519    8.6346   11.2230 S   0  0  0  0  0  0  0  0  0  0  0  0
   -2.9476    7.1862   11.5483 C   0  0  0  0  0  0  0  0  0  0  0  0
   -3.7564    7.0954   12.6171 N   0  0  0  0  0  0  0  0  0  0  0  0
   -4.5001    5.9983   12.8488 C   0  0  0  0  0  0  0  0  0  0  0  0
   -5.3541    5.9101   13.9829 N   0  0  0  0  0  0  0  0  0  0  0  0
   -4.3965    4.9658   11.9382 C   0  0  0  0  0  0  0  0  0  0  0  0
   -3.5744    5.0308   10.8316 C   0  0  0  0  0  0  0  0  0  0  0  0
   -2.8608    6.1689   10.6726 N   0  0  0  0  0  0  0  0  0  0  0  0
   -3.6631    3.8951   10.1147 N   0  0  0  0  0  0  0  0  0  0  0  0
   -4.5321    3.1110   10.7542 C   0  0  0  0  0  0  0  0  0  0  0  0
   -4.9828    3.7424   11.8552 N   0  0  0  0  0  0  0  0  0  0  0  0
   -2.9247    3.6600    8.9038 C   0  0  2  0  0  0  0  0  0  0  0  0
   -3.6686    3.1577    7.8723 O   0  0  0  0  0  0  0  0  0  0  0  0
   -2.8448    2.4884    7.0061 C   0  0  1  0  0  0  0  0  0  0  0  0
   -1.4921    2.3453    7.6530 C   0  0  2  0  0  0  0  0  0  0  0  0
   -1.8282    2.6114    9.1069 C   0  0  1  0  0  0  0  0  0  0  0  0
   -0.7610    3.0961    9.8187 O   0  0  0  0  0  0  0  0  0  0  0  0
   -0.6896    3.4025    7.2241 O   0  0  0  0  0  0  0  0  0  0  0  0
   -3.3945    1.1252    6.7522 C   0  0  0  0  0  0  0  0  0  0  0  0
   -3.6622    0.4168    7.9210 O   0  0  0  0  0  0  0  0  0  0  0  0
   -4.2123   -1.1300    7.6231 P   0  0  1  0  0  5  0  0  0  0  0  0
   -3.9778   -1.5943    6.2146 O   0  0  0  0  0  0  0  0  0  0  0  0
   -3.4859   -2.1689    8.7612 O   0  0  0  0  0  0  0  0  0  0  0  0
   -2.3139   -3.0668    7.9268 P   0  0  2  0  0  5  0  0  0  0  0  0
   -1.4043   -2.1518    7.1309 O   0  0  0  0  0  0  0  0  0  0  0  0
   -3.1360   -4.1443    6.8979 O   0  0  0  0  0  0  0  0  0  0  0  0
   -3.2465   -3.3835    5.3828 P   0  0  0  0  0  5  0  0  0  0  0  0
   -1.8855   -3.3123    4.7191 O   0  0  0  0  0  0  0  0  0  0  0  0
   -3.9189   -1.8395    5.5649 O   0  0  0  0  0  1  0  0  0  0  0  0
   -4.2719   -4.2531    4.3394 O   0  0  0  0  0  1  0  0  0  0  0  0
   -1.4054   -3.9291    9.0812 O   0  0  0  0  0  1  0  0  0  0  0  0
   -5.8889   -1.1590    7.8901 O   0  0  0  0  0  1  0  0  0  0  0  0
  1  2  1  0
  2  3  1  0
  3  4  2  0
  4  5  1  0
  5  6  1  0
  5  7  2  0
  7  8  1  0
  8  9  2  0
  8 10  1  0
 10 11  1  0
 11 12  2  0
 13 10  1  1
 13 14  1  0
 14 15  1  0
 15 16  1  0
 16 17  1  0
 17 18  1  1
 16 19  1  6
 15 20  1  1
 20 21  1  0
 21 22  1  0
 22 23  2  0
 22 24  1  0
 24 25  1  0
 25 26  2  0
 25 27  1  0
 27 28  1  0
 28 29  2  0
 28 30  1  0
 28 31  1  0
 25 32  1  1
 22 33  1  1
  9  3  1  0
 17 13  1  0
 12  7  1  0
M  CHG  4  30  -1  31  -1  32  -1  33  -1
M  END
$$$$
