
     RDKit          3D

 33 35  0  0  0  0  0  0  0  0999 V2000
    4.2072    0.2204   16.0036 C   0  0  0  0  0  0  0  0  0  0  0  0
    3.6373    0.8499   14.3801 S   0  0  0  0  0  0  0  0  0  0  0  0
    1.8594    0.6658   14.3615 C   0  0  0  0  0  0  0  0  0  0  0  0
    1.1473    0.4531   15.4806 N   0  0  0  0  0  0  0  0  0  0  0  0
   -0.1910    0.3165   15.4509 C   0  0  0  0  0  0  0  0  0  0  0  0
   -0.9377    0.0915   16.6404 N   0  0  0  0  0  0  0  0  0  0  0  0
   -0.8038    0.4046   14.2168 C   0  0  0  0  0  0  0  0  0  0  0  0
   -0.0983    0.6225   13.0508 C   0  0  0  0  0  0  0  0  0  0  0  0
    1.2434    0.7485   13.1687 N   0  0  0  0  0  0  0  0  0  0  0  0
   -0.9353    0.6647   11.9978 N   0  0  0  0  0  0  0  0  0  0  0  0
   -2.1634    0.4762   12.4829 C   0  0  0  0  0  0  0  0  0  0  0  0
   -2.1004    0.3179   13.8189 N   0  0  0  0  0  0  0  0  0  0  0  0
   -0.4997    0.8772   10.6443 C   0  0  2  0  0  0  0  0  0  0  0  0
   -0.9261    2.0509   10.0870 O   0  0  0  0  0  0  0  0  0  0  0  0
   -0.9372    1.9246    8.7229 C   0  0  1  0  0  0  0  0  0  0  0  0
   -0.7258    0.4734    8.3791 C   0  0  2  0  0  0  0  0  0  0  0  0
   -1.0491   -0.1953    9.7004 C   0  0  1  0  0  0  0  0  0  0  0  0
   -0.4189   -1.4037    9.8523 O   0  0  0  0  0  0  0  0  0  0  0  0
    0.6354    0.2740    8.1480 O   0  0  0  0  0  0  0  0  0  0  0  0
   -2.2678    2.3464    8.1967 C   0  0  0  0  0  0  0  0  0  0  0  0
   -3.2934    1.4665    8.5336 O   0  0  0  0  0  0  0  0  0  0  0  0
   -4.8027    2.0569    8.1369 P   0  0  1  0  0  5  0  0  0  0  0  0
   -4.7927    3.4899    7.6889 O   0  0  0  0  0  0  0  0  0  0  0  0
   -5.4693    1.0285    6.9536 O   0  0  0  0  0  0  0  0  0  0  0  0
   -5.0239    1.6637    5.4455 P   0  0  2  0  0  5  0  0  0  0  0  0
   -5.1775    3.1717    5.4328 O   0  0  0  0  0  0  0  0  0  0  0  0
   -6.0275    0.9449    4.2744 O   0  0  0  0  0  0  0  0  0  0  0  0
   -6.0444    1.9928    2.9372 P   0  0  0  0  0  5  0  0  0  0  0  0
   -7.4369    2.0821    2.3448 O   0  0  0  0  0  0  0  0  0  0  0  0
   -4.9220    1.4665    1.7828 O   0  0  0  0  0  1  0  0  0  0  0  0
   -5.5881    3.5677    3.3933 O   0  0  0  0  0  1  0  0  0  0  0  0
   -3.3968    1.2428    5.1681 O   0  0  0  0  0  1  0  0  0  0  0  0
   -5.7883    1.9676    9.5166 O   0  0  0  0  0  1  0  0  0  0  0  0
  1  2  1  0
  2  3  1  0
  3  4  2  0
  4  5  1  0
  5  6  1  0
  5  7  2  0
  7  8  1  0
  8  9  2  0
  8 10  1  0
 10 11  1  0
 11 12  2  0
 13 10  1  1
 13 14  1  0
 14 15  1  0
 15 16  1  0
 16 17  1  0
 17 18  1  6
 16 19  1  1
 15 20  1  1
 20 21  1  0
 21 22  1  0
 22 23  2  0
 22 24  1  0
 24 25  1  0
 25 26  2  0
 25 27  1  0
 27 28  1  0
 28 29  2  0
 28 30  1  0
 28 31  1  0
 25 32  1  6
 22 33  1  1
  9  3  1  0
 17 13  1  0
 12  7  1  0
M  CHG  4  30  -1  31  -1  32  -1  33  -1
M  END
$$$$
