
     RDKit          3D

 33 35  0  0  0  0  0  0  0  0999 V2000
   -0.4506    8.8272   11.7094 C   0  0  0  0  0  0  0  0  0  0  0  0
   -0.5464    7.5922   10.3594 S   0  0  0  0  0  0  0  0  0  0  0  0
   -2.2243    6.9761   10.3550 C   0  0  0  0  0  0  0  0  0  0  0  0
   -3.1867    7.5068   11.1277 N   0  0  0  0  0  0  0  0  0  0  0  0
   -4.4457    7.0321   11.1135 C   0  0  0  0  0  0  0  0  0  0  0  0
   -5.4589    7.5997   11.9347 N   0  0  0  0  0  0  0  0  0  0  0  0
   -4.7077    5.9725   10.2681 C   0  0  0  0  0  0  0  0  0  0  0  0
   -3.7395    5.4072    9.4633 C   0  0  0  0  0  0  0  0  0  0  0  0
   -2.5000    5.9438    9.5380 N   0  0  0  0  0  0  0  0  0  0  0  0
   -4.2604    4.3963    8.7434 N   0  0  0  0  0  0  0  0  0  0  0  0
   -5.5477    4.3144    9.0826 C   0  0  0  0  0  0  0  0  0  0  0  0
   -5.8323    5.2578   10.0007 N   0  0  0  0  0  0  0  0  0  0  0  0
   -3.4992    3.6100    7.8112 C   0  0  2  0  0  0  0  0  0  0  0  0
   -4.2163    2.6408    7.1658 O   0  0  0  0  0  0  0  0  0  0  0  0
   -3.3647    1.6520    6.7487 C   0  0  1  0  0  0  0  0  0  0  0  0
   -2.0187    1.8866    7.3827 C   0  0  2  0  0  0  0  0  0  0  0  0
   -2.3820    2.8318    8.5106 C   0  0  1  0  0  0  0  0  0  0  0  0
   -1.3367    3.6352    8.8878 O   0  0  0  0  0  0  0  0  0  0  0  0
   -1.2345    2.6116    6.4852 O   0  0  0  0  0  0  0  0  0  0  0  0
   -3.8792    0.3288    7.2067 C   0  0  0  0  0  0  0  0  0  0  0  0
   -3.4991    0.0150    8.5093 O   0  0  0  0  0  0  0  0  0  0  0  0
   -4.5721   -1.0187    9.2603 P   0  0  1  0  0  5  0  0  0  0  0  0
   -5.0040   -2.1711    8.4002 O   0  0  0  0  0  0  0  0  0  0  0  0
   -3.8558   -1.5466   10.7130 O   0  0  0  0  0  0  0  0  0  0  0  0
   -3.2525   -3.1049   10.4236 P   0  0  2  0  0  5  0  0  0  0  0  0
   -2.3874   -3.5678   11.5792 O   0  0  0  0  0  0  0  0  0  0  0  0
   -2.3505   -3.0414    8.9821 O   0  0  0  0  0  0  0  0  0  0  0  0
   -0.7941   -2.5064    9.4039 P   0  0  0  0  0  5  0  0  0  0  0  0
   -0.8697   -1.2364   10.2280 O   0  0  0  0  0  0  0  0  0  0  0  0
    0.1299   -2.2719    8.0037 O   0  0  0  0  0  1  0  0  0  0  0  0
    0.0149   -3.6712   10.3448 O   0  0  0  0  0  1  0  0  0  0  0  0
   -4.5857   -4.1492   10.2408 O   0  0  0  0  0  1  0  0  0  0  0  0
   -5.9678   -0.1381    9.6601 O   0  0  0  0  0  1  0  0  0  0  0  0
  1  2  1  0
  2  3  1  0
  3  4  2  0
  4  5  1  0
  5  6  1  0
  5  7  2  0
  7  8  1  0
  8  9  2  0
  8 10  1  0
 10 11  1  0
 11 12  2  0
 13 10  1  1
 13 14  1  0
 14 15  1  0
 15 16  1  0
 16 17  1  0
 17 18  1  6
 16 19  1  6
 15 20  1  1
 20 21  1  0
 21 22  1  0
 22 23  2  0
 22 24  1  0
 24 25  1  0
 25 26  2  0
 25 27  1  0
 27 28  1  0
 28 29  2  0
 28 30  1  0
 28 31  1  0
 25 32  1  6
 22 33  1  1
  9  3  1  0
 17 13  1  0
 12  7  1  0
M  CHG  4  30  -1  31  -1  32  -1  33  -1
M  END
$$$$
