
     RDKit          3D

 22 24  0  0  0  0  0  0  0  0999 V2000
    0.4279    2.4778   11.5244 C   0  0  0  0  0  0  0  0  0  0  0  0
    0.8036    1.8283   10.2045 C   0  0  0  0  0  0  0  0  0  0  0  0
    0.4669    2.7507    9.0779 C   0  0  0  0  0  0  0  0  0  0  0  0
    0.3601    0.4938   10.0894 N   0  0  0  0  0  0  0  0  0  0  0  0
    0.9181   -0.5155   10.8833 C   0  0  0  0  0  0  0  0  0  0  0  0
    0.4882   -1.9315   10.5489 C   0  0  0  0  0  0  0  0  0  0  0  0
   -0.1177   -1.9382    9.1589 C   0  0  0  0  0  0  0  0  0  0  0  0
   -0.5360   -3.1288    8.6624 O   0  0  0  0  0  0  0  0  0  0  0  0
   -1.0973   -3.5815    7.5342 C   0  0  0  0  0  0  0  0  0  0  0  0
   -1.3200   -2.7533    6.4579 C   0  0  0  0  0  0  0  0  0  0  0  0
   -1.9042   -3.2700    5.3188 C   0  0  0  0  0  0  0  0  0  0  0  0
   -2.2680   -4.5839    5.2306 C   0  0  0  0  0  0  0  0  0  0  0  0
   -2.0400   -5.4179    6.3234 C   0  0  0  0  0  0  0  0  0  0  0  0
   -1.4617   -4.9406    7.4730 C   0  0  0  0  0  0  0  0  0  0  0  0
   -1.3724   -5.9957    8.3543 C   0  0  0  0  0  0  0  0  0  0  0  0
   -0.8891   -6.1140    9.6333 C   0  0  0  0  0  0  0  0  0  0  0  0
   -0.9129   -7.3209   10.3220 C   0  0  0  0  0  0  0  0  0  0  0  0
   -1.4346   -8.4473    9.7190 C   0  0  0  0  0  0  0  0  0  0  0  0
   -1.9227   -8.3347    8.4325 C   0  0  0  0  0  0  0  0  0  0  0  0
   -1.8941   -7.1194    7.7504 C   0  0  0  0  0  0  0  0  0  0  0  0
   -2.2889   -6.7348    6.5229 N   0  0  0  0  0  0  0  0  0  0  0  0
   -0.5048   -2.2965   11.4946 O   0  0  0  0  0  0  0  0  0  0  0  0
  1  2  1  0
  2  3  1  0
  2  4  1  0
  4  5  1  0
  5  6  1  0
  6  7  1  0
  7  8  1  0
  8  9  1  0
  9 10  2  0
 10 11  1  0
 11 12  2  0
 12 13  1  0
 13 14  2  0
 14 15  1  0
 15 16  2  0
 16 17  1  0
 17 18  2  0
 18 19  1  0
 19 20  2  0
 20 21  1  0
  6 22  1  0
 14  9  1  0
 21 13  1  0
 20 15  1  0
M  END
$$$$
