
     RDKit          3D

 22 24  0  0  0  0  0  0  0  0999 V2000
    0.6136    1.3054   12.5939 C   0  0  0  0  0  0  0  0  0  0  0  0
    1.6844    0.9663   11.5724 C   0  0  0  0  0  0  0  0  0  0  0  0
    2.8369    1.9057   11.7234 C   0  0  0  0  0  0  0  0  0  0  0  0
    1.1780    0.7838   10.2682 N   0  0  0  0  0  0  0  0  0  0  0  0
    0.8550   -0.4955    9.7996 C   0  0  0  0  0  0  0  0  0  0  0  0
   -0.3972   -0.5897    8.9483 C   0  0  0  0  0  0  0  0  0  0  0  0
   -1.2730   -1.6996    9.4963 C   0  0  0  0  0  0  0  0  0  0  0  0
   -1.0322   -2.9615    9.0618 O   0  0  0  0  0  0  0  0  0  0  0  0
   -0.9686   -4.1892    9.5924 C   0  0  0  0  0  0  0  0  0  0  0  0
   -0.6297   -4.3871   10.9114 C   0  0  0  0  0  0  0  0  0  0  0  0
   -0.5764   -5.6740   11.4082 C   0  0  0  0  0  0  0  0  0  0  0  0
   -0.8515   -6.7587   10.6246 C   0  0  0  0  0  0  0  0  0  0  0  0
   -1.1941   -6.5524    9.2898 C   0  0  0  0  0  0  0  0  0  0  0  0
   -1.2575   -5.2879    8.7598 C   0  0  0  0  0  0  0  0  0  0  0  0
   -1.6186   -5.4167    7.4366 C   0  0  0  0  0  0  0  0  0  0  0  0
   -1.8333   -4.5110    6.4282 C   0  0  0  0  0  0  0  0  0  0  0  0
   -2.2011   -4.9065    5.1477 C   0  0  0  0  0  0  0  0  0  0  0  0
   -2.3605   -6.2468    4.8604 C   0  0  0  0  0  0  0  0  0  0  0  0
   -2.1456   -7.1630    5.8705 C   0  0  0  0  0  0  0  0  0  0  0  0
   -1.7770   -6.7559    7.1516 C   0  0  0  0  0  0  0  0  0  0  0  0
   -1.5126   -7.4150    8.2946 N   0  0  0  0  0  0  0  0  0  0  0  0
    0.0203   -0.9276    7.6348 O   0  0  0  0  0  0  0  0  0  0  0  0
  1  2  1  0
  2  3  1  0
  2  4  1  0
  4  5  1  0
  5  6  1  0
  6  7  1  0
  7  8  1  0
  8  9  1  0
  9 10  2  0
 10 11  1  0
 11 12  2  0
 12 13  1  0
 13 14  2  0
 14 15  1  0
 15 16  2  0
 16 17  1  0
 17 18  2  0
 18 19  1  0
 19 20  2  0
 20 21  1  0
  6 22  1  0
 14  9  1  0
 21 13  1  0
 20 15  1  0
M  END
$$$$
