
     RDKit          3D

 22 24  0  0  0  0  0  0  0  0999 V2000
    1.7031   -0.8288   12.4253 C   0  0  0  0  0  0  0  0  0  0  0  0
    1.7208    0.0987   11.2235 C   0  0  0  0  0  0  0  0  0  0  0  0
    2.1506    1.4649   11.6508 C   0  0  0  0  0  0  0  0  0  0  0  0
    0.5548    0.0160   10.4334 N   0  0  0  0  0  0  0  0  0  0  0  0
    0.4685   -0.9037    9.3812 C   0  0  0  0  0  0  0  0  0  0  0  0
   -0.7666   -0.7924    8.5072 C   0  0  0  0  0  0  0  0  0  0  0  0
   -0.6397   -1.7779    7.3618 C   0  0  0  0  0  0  0  0  0  0  0  0
   -0.9063   -3.0816    7.6233 O   0  0  0  0  0  0  0  0  0  0  0  0
   -1.3760   -4.1428    6.9554 C   0  0  0  0  0  0  0  0  0  0  0  0
   -1.7112   -4.0645    5.6229 C   0  0  0  0  0  0  0  0  0  0  0  0
   -2.1934   -5.1879    4.9817 C   0  0  0  0  0  0  0  0  0  0  0  0
   -2.3474   -6.3777    5.6351 C   0  0  0  0  0  0  0  0  0  0  0  0
   -2.0065   -6.4512    6.9842 C   0  0  0  0  0  0  0  0  0  0  0  0
   -1.5239   -5.3557    7.6558 C   0  0  0  0  0  0  0  0  0  0  0  0
   -1.2829   -5.7460    8.9548 C   0  0  0  0  0  0  0  0  0  0  0  0
   -0.8034   -5.0891   10.0601 C   0  0  0  0  0  0  0  0  0  0  0  0
   -0.6480   -5.7248   11.2862 C   0  0  0  0  0  0  0  0  0  0  0  0
   -0.9806   -7.0578   11.4174 C   0  0  0  0  0  0  0  0  0  0  0  0
   -1.4639   -7.7242   10.3091 C   0  0  0  0  0  0  0  0  0  0  0  0
   -1.6159   -7.0772    9.0838 C   0  0  0  0  0  0  0  0  0  0  0  0
   -2.0501   -7.4728    7.8732 N   0  0  0  0  0  0  0  0  0  0  0  0
   -0.7886    0.5283    7.9886 O   0  0  0  0  0  0  0  0  0  0  0  0
  1  2  1  0
  2  3  1  0
  2  4  1  0
  4  5  1  0
  5  6  1  0
  6  7  1  0
  7  8  1  0
  8  9  1  0
  9 10  2  0
 10 11  1  0
 11 12  2  0
 12 13  1  0
 13 14  2  0
 14 15  1  0
 15 16  2  0
 16 17  1  0
 17 18  2  0
 18 19  1  0
 19 20  2  0
 20 21  1  0
  6 22  1  0
 14  9  1  0
 21 13  1  0
 20 15  1  0
M  END
$$$$
