
     RDKit          3D

 22 24  0  0  0  0  0  0  0  0999 V2000
    0.0465    0.4058   11.7702 C   0  0  0  0  0  0  0  0  0  0  0  0
    1.0627   -0.2680   10.8657 C   0  0  0  0  0  0  0  0  0  0  0  0
    2.4432    0.1245   11.2826 C   0  0  0  0  0  0  0  0  0  0  0  0
    0.7552   -0.1540    9.4934 N   0  0  0  0  0  0  0  0  0  0  0  0
   -0.4241   -0.7047    8.9773 C   0  0  0  0  0  0  0  0  0  0  0  0
   -0.6148   -0.5694    7.4783 C   0  0  0  0  0  0  0  0  0  0  0  0
   -0.3426   -1.9139    6.8322 C   0  0  0  0  0  0  0  0  0  0  0  0
   -1.0953   -2.9675    7.2351 O   0  0  0  0  0  0  0  0  0  0  0  0
   -1.5585   -4.1059    6.7037 C   0  0  0  0  0  0  0  0  0  0  0  0
   -1.9887   -4.1684    5.3979 C   0  0  0  0  0  0  0  0  0  0  0  0
   -2.4595   -5.3667    4.8996 C   0  0  0  0  0  0  0  0  0  0  0  0
   -2.5101   -6.4945    5.6689 C   0  0  0  0  0  0  0  0  0  0  0  0
   -2.0731   -6.4255    6.9903 C   0  0  0  0  0  0  0  0  0  0  0  0
   -1.5986   -5.2520    7.5212 C   0  0  0  0  0  0  0  0  0  0  0  0
   -1.2494   -5.5069    8.8293 C   0  0  0  0  0  0  0  0  0  0  0  0
   -0.7265   -4.7287    9.8314 C   0  0  0  0  0  0  0  0  0  0  0  0
   -0.4558   -5.2383   11.0958 C   0  0  0  0  0  0  0  0  0  0  0  0
   -0.7137   -6.5654   11.3727 C   0  0  0  0  0  0  0  0  0  0  0  0
   -1.2400   -7.3535   10.3688 C   0  0  0  0  0  0  0  0  0  0  0  0
   -1.5078   -6.8326    9.1039 C   0  0  0  0  0  0  0  0  0  0  0  0
   -2.0055   -7.3590    7.9699 N   0  0  0  0  0  0  0  0  0  0  0  0
    0.3443    0.3720    7.0228 O   0  0  0  0  0  0  0  0  0  0  0  0
  1  2  1  0
  2  3  1  0
  2  4  1  0
  4  5  1  0
  5  6  1  0
  6  7  1  0
  7  8  1  0
  8  9  1  0
  9 10  2  0
 10 11  1  0
 11 12  2  0
 12 13  1  0
 13 14  2  0
 14 15  1  0
 15 16  2  0
 16 17  1  0
 17 18  2  0
 18 19  1  0
 19 20  2  0
 20 21  1  0
  6 22  1  0
 14  9  1  0
 21 13  1  0
 20 15  1  0
M  END
$$$$
