
     RDKit          3D

 22 24  0  0  0  0  0  0  0  0999 V2000
   -3.0244    2.1180   10.7985 C   0  0  0  0  0  0  0  0  0  0  0  0
   -1.5600    1.7222   10.7359 C   0  0  0  0  0  0  0  0  0  0  0  0
   -0.7049    2.9251   10.9719 C   0  0  0  0  0  0  0  0  0  0  0  0
   -1.2417    0.9242    9.6168 N   0  0  0  0  0  0  0  0  0  0  0  0
   -0.6493   -0.3337    9.7816 C   0  0  0  0  0  0  0  0  0  0  0  0
   -0.0073   -0.9283    8.5422 C   0  0  0  0  0  0  0  0  0  0  0  0
    0.5505   -2.2938    8.8934 C   0  0  0  0  0  0  0  0  0  0  0  0
   -0.2961   -3.3516    8.8344 O   0  0  0  0  0  0  0  0  0  0  0  0
   -0.4141   -4.5508    9.4182 C   0  0  0  0  0  0  0  0  0  0  0  0
    0.2209   -4.8400   10.6045 C   0  0  0  0  0  0  0  0  0  0  0  0
    0.0680   -6.0930   11.1632 C   0  0  0  0  0  0  0  0  0  0  0  0
   -0.6980   -7.0559   10.5696 C   0  0  0  0  0  0  0  0  0  0  0  0
   -1.3387   -6.7576    9.3686 C   0  0  0  0  0  0  0  0  0  0  0  0
   -1.2105   -5.5231    8.7825 C   0  0  0  0  0  0  0  0  0  0  0  0
   -1.9544   -5.5417    7.6231 C   0  0  0  0  0  0  0  0  0  0  0  0
   -2.1976   -4.6081    6.6472 C   0  0  0  0  0  0  0  0  0  0  0  0
   -3.0066   -4.8811    5.5506 C   0  0  0  0  0  0  0  0  0  0  0  0
   -3.5930   -6.1236    5.4202 C   0  0  0  0  0  0  0  0  0  0  0  0
   -3.3519   -7.0673    6.3986 C   0  0  0  0  0  0  0  0  0  0  0  0
   -2.5389   -6.7832    7.4946 C   0  0  0  0  0  0  0  0  0  0  0  0
   -2.1457   -7.4942    8.5674 N   0  0  0  0  0  0  0  0  0  0  0  0
    1.0589   -0.0669    8.1751 O   0  0  0  0  0  0  0  0  0  0  0  0
  1  2  1  0
  2  3  1  0
  2  4  1  0
  4  5  1  0
  5  6  1  0
  6  7  1  0
  7  8  1  0
  8  9  1  0
  9 10  2  0
 10 11  1  0
 11 12  2  0
 12 13  1  0
 13 14  2  0
 14 15  1  0
 15 16  2  0
 16 17  1  0
 17 18  2  0
 18 19  1  0
 19 20  2  0
 20 21  1  0
  6 22  1  0
 14  9  1  0
 21 13  1  0
 20 15  1  0
M  END
$$$$
