
     RDKit          3D

 22 24  0  0  0  0  0  0  0  0999 V2000
   -2.0434    2.5956   10.8664 C   0  0  0  0  0  0  0  0  0  0  0  0
   -1.7602    1.1050   10.9214 C   0  0  0  0  0  0  0  0  0  0  0  0
   -1.6050    0.6762   12.3448 C   0  0  0  0  0  0  0  0  0  0  0  0
   -0.7585    0.6904   10.0186 N   0  0  0  0  0  0  0  0  0  0  0  0
   -0.8682   -0.5299    9.3407 C   0  0  0  0  0  0  0  0  0  0  0  0
    0.1922   -0.7984    8.2894 C   0  0  0  0  0  0  0  0  0  0  0  0
   -0.4357   -1.5913    7.1597 C   0  0  0  0  0  0  0  0  0  0  0  0
   -0.7396   -2.8911    7.3988 O   0  0  0  0  0  0  0  0  0  0  0  0
   -1.4101   -3.8737    6.7841 C   0  0  0  0  0  0  0  0  0  0  0  0
   -1.9211   -3.7133    5.5163 C   0  0  0  0  0  0  0  0  0  0  0  0
   -2.6067   -4.7574    4.9285 C   0  0  0  0  0  0  0  0  0  0  0  0
   -2.7922   -5.9480    5.5723 C   0  0  0  0  0  0  0  0  0  0  0  0
   -2.2726   -6.1048    6.8557 C   0  0  0  0  0  0  0  0  0  0  0  0
   -1.5854   -5.0896    7.4729 C   0  0  0  0  0  0  0  0  0  0  0  0
   -1.2050   -5.5493    8.7146 C   0  0  0  0  0  0  0  0  0  0  0  0
   -0.5057   -4.9854    9.7521 C   0  0  0  0  0  0  0  0  0  0  0  0
   -0.2463   -5.6776   10.9289 C   0  0  0  0  0  0  0  0  0  0  0  0
   -0.6971   -6.9733   11.0791 C   0  0  0  0  0  0  0  0  0  0  0  0
   -1.4014   -7.5461   10.0390 C   0  0  0  0  0  0  0  0  0  0  0  0
   -1.6563   -6.8431    8.8627 C   0  0  0  0  0  0  0  0  0  0  0  0
   -2.2981   -7.1481    7.7199 N   0  0  0  0  0  0  0  0  0  0  0  0
    1.1995   -1.5827    8.9090 O   0  0  0  0  0  0  0  0  0  0  0  0
  1  2  1  0
  2  3  1  0
  2  4  1  0
  4  5  1  0
  5  6  1  0
  6  7  1  0
  7  8  1  0
  8  9  1  0
  9 10  2  0
 10 11  1  0
 11 12  2  0
 12 13  1  0
 13 14  2  0
 14 15  1  0
 15 16  2  0
 16 17  1  0
 17 18  2  0
 18 19  1  0
 19 20  2  0
 20 21  1  0
  6 22  1  0
 14  9  1  0
 21 13  1  0
 20 15  1  0
M  END
$$$$
