
     RDKit          3D

 22 24  0  0  0  0  0  0  0  0999 V2000
    0.2911    3.6563   10.2237 C   0  0  0  0  0  0  0  0  0  0  0  0
    0.3159    2.2810   10.8664 C   0  0  0  0  0  0  0  0  0  0  0  0
    1.3348    2.2566   11.9595 C   0  0  0  0  0  0  0  0  0  0  0  0
    0.3596    1.2253    9.9314 N   0  0  0  0  0  0  0  0  0  0  0  0
   -0.4827    0.1151   10.0674 C   0  0  0  0  0  0  0  0  0  0  0  0
    0.0114   -1.1700    9.4302 C   0  0  0  0  0  0  0  0  0  0  0  0
   -1.0117   -1.6290    8.4094 C   0  0  0  0  0  0  0  0  0  0  0  0
   -1.1429   -2.9637    8.2089 O   0  0  0  0  0  0  0  0  0  0  0  0
   -1.7375   -3.7714    7.3218 C   0  0  0  0  0  0  0  0  0  0  0  0
   -2.1662   -3.3071    6.0993 C   0  0  0  0  0  0  0  0  0  0  0  0
   -2.7757   -4.1813    5.2218 C   0  0  0  0  0  0  0  0  0  0  0  0
   -2.9653   -5.4976    5.5345 C   0  0  0  0  0  0  0  0  0  0  0  0
   -2.5292   -5.9623    6.7737 C   0  0  0  0  0  0  0  0  0  0  0  0
   -1.9192   -5.1233    7.6725 C   0  0  0  0  0  0  0  0  0  0  0  0
   -1.6092   -5.8729    8.7860 C   0  0  0  0  0  0  0  0  0  0  0  0
   -1.0009   -5.5757    9.9798 C   0  0  0  0  0  0  0  0  0  0  0  0
   -0.7993   -6.5361   10.9640 C   0  0  0  0  0  0  0  0  0  0  0  0
   -1.2166   -7.8347   10.7542 C   0  0  0  0  0  0  0  0  0  0  0  0
   -1.8295   -8.1400    9.5554 C   0  0  0  0  0  0  0  0  0  0  0  0
   -2.0268   -7.1692    8.5747 C   0  0  0  0  0  0  0  0  0  0  0  0
   -2.5791   -7.1886    7.3478 N   0  0  0  0  0  0  0  0  0  0  0  0
    0.1056   -2.1355   10.4659 O   0  0  0  0  0  0  0  0  0  0  0  0
  1  2  1  0
  2  3  1  0
  2  4  1  0
  4  5  1  0
  5  6  1  0
  6  7  1  0
  7  8  1  0
  8  9  1  0
  9 10  2  0
 10 11  1  0
 11 12  2  0
 12 13  1  0
 13 14  2  0
 14 15  1  0
 15 16  2  0
 16 17  1  0
 17 18  2  0
 18 19  1  0
 19 20  2  0
 20 21  1  0
  6 22  1  0
 14  9  1  0
 21 13  1  0
 20 15  1  0
M  END
$$$$
