
     RDKit          3D

 22 24  0  0  0  0  0  0  0  0999 V2000
   -3.4212   -5.1598    6.2625 C   0  0  0  0  0  0  0  0  0  0  0  0
   -2.9078   -3.9469    5.5072 C   0  0  0  0  0  0  0  0  0  0  0  0
   -2.3745   -4.3729    4.1776 C   0  0  0  0  0  0  0  0  0  0  0  0
   -2.0818   -3.1091    6.2860 N   0  0  0  0  0  0  0  0  0  0  0  0
   -1.2913   -2.1239    5.6820 C   0  0  0  0  0  0  0  0  0  0  0  0
   -0.1373   -1.6005    6.5163 C   0  0  0  0  0  0  0  0  0  0  0  0
   -0.5476   -1.6191    7.9760 C   0  0  0  0  0  0  0  0  0  0  0  0
   -0.1704   -2.6881    8.7203 O   0  0  0  0  0  0  0  0  0  0  0  0
    0.1355   -2.9371    9.9999 C   0  0  0  0  0  0  0  0  0  0  0  0
    0.6423   -1.9576   10.8230 C   0  0  0  0  0  0  0  0  0  0  0  0
    0.9433   -2.2676   12.1341 C   0  0  0  0  0  0  0  0  0  0  0  0
    0.7515   -3.5229   12.6378 C   0  0  0  0  0  0  0  0  0  0  0  0
    0.2381   -4.5108   11.7999 C   0  0  0  0  0  0  0  0  0  0  0  0
   -0.0731   -4.2407   10.4906 C   0  0  0  0  0  0  0  0  0  0  0  0
   -0.5528   -5.4067    9.9354 C   0  0  0  0  0  0  0  0  0  0  0  0
   -1.0107   -5.7329    8.6836 C   0  0  0  0  0  0  0  0  0  0  0  0
   -1.4520   -7.0130    8.3702 C   0  0  0  0  0  0  0  0  0  0  0  0
   -1.4374   -8.0012    9.3334 C   0  0  0  0  0  0  0  0  0  0  0  0
   -0.9776   -7.6793   10.5947 C   0  0  0  0  0  0  0  0  0  0  0  0
   -0.5372   -6.3923   10.8988 C   0  0  0  0  0  0  0  0  0  0  0  0
   -0.0531   -5.8166   12.0145 N   0  0  0  0  0  0  0  0  0  0  0  0
    0.0916   -0.2601    6.1110 O   0  0  0  0  0  0  0  0  0  0  0  0
  1  2  1  0
  2  3  1  0
  2  4  1  0
  4  5  1  0
  5  6  1  0
  6  7  1  0
  7  8  1  0
  8  9  1  0
  9 10  2  0
 10 11  1  0
 11 12  2  0
 12 13  1  0
 13 14  2  0
 14 15  1  0
 15 16  2  0
 16 17  1  0
 17 18  2  0
 18 19  1  0
 19 20  2  0
 20 21  1  0
  6 22  1  0
 14  9  1  0
 21 13  1  0
 20 15  1  0
M  END
$$$$
