
     RDKit          3D

 22 24  0  0  0  0  0  0  0  0999 V2000
    1.9572    1.1739   13.6424 C   0  0  0  0  0  0  0  0  0  0  0  0
    1.8967    0.9748   12.1384 C   0  0  0  0  0  0  0  0  0  0  0  0
    1.6384    2.2859   11.4691 C   0  0  0  0  0  0  0  0  0  0  0  0
    1.0840   -0.1106   11.7483 N   0  0  0  0  0  0  0  0  0  0  0  0
    1.2097   -1.3577   12.3722 C   0  0  0  0  0  0  0  0  0  0  0  0
    0.8979   -2.5634   11.5057 C   0  0  0  0  0  0  0  0  0  0  0  0
    0.0623   -2.1083   10.3252 C   0  0  0  0  0  0  0  0  0  0  0  0
   -0.2783   -3.0404    9.4009 O   0  0  0  0  0  0  0  0  0  0  0  0
   -0.7822   -3.0575    8.1605 C   0  0  0  0  0  0  0  0  0  0  0  0
   -0.7677   -1.9368    7.3618 C   0  0  0  0  0  0  0  0  0  0  0  0
   -1.3025   -2.0074    6.0911 C   0  0  0  0  0  0  0  0  0  0  0  0
   -1.8468   -3.1618    5.6037 C   0  0  0  0  0  0  0  0  0  0  0  0
   -1.8588   -4.2934    6.4168 C   0  0  0  0  0  0  0  0  0  0  0  0
   -1.3366   -4.2620    7.6858 C   0  0  0  0  0  0  0  0  0  0  0  0
   -1.4962   -5.5197    8.2248 C   0  0  0  0  0  0  0  0  0  0  0  0
   -1.1695   -6.0707    9.4384 C   0  0  0  0  0  0  0  0  0  0  0  0
   -1.4431   -7.3988    9.7430 C   0  0  0  0  0  0  0  0  0  0  0  0
   -2.0622   -8.2055    8.8099 C   0  0  0  0  0  0  0  0  0  0  0  0
   -2.3936   -7.6570    7.5872 C   0  0  0  0  0  0  0  0  0  0  0  0
   -2.1147   -6.3236    7.2917 C   0  0  0  0  0  0  0  0  0  0  0  0
   -2.3200   -5.5504    6.2096 N   0  0  0  0  0  0  0  0  0  0  0  0
    0.1367   -3.4586   12.3012 O   0  0  0  0  0  0  0  0  0  0  0  0
  1  2  1  0
  2  3  1  0
  2  4  1  0
  4  5  1  0
  5  6  1  0
  6  7  1  0
  7  8  1  0
  8  9  1  0
  9 10  2  0
 10 11  1  0
 11 12  2  0
 12 13  1  0
 13 14  2  0
 14 15  1  0
 15 16  2  0
 16 17  1  0
 17 18  2  0
 18 19  1  0
 19 20  2  0
 20 21  1  0
  6 22  1  0
 14  9  1  0
 21 13  1  0
 20 15  1  0
M  END
$$$$
