
     RDKit          3D

 22 24  0  0  0  0  0  0  0  0999 V2000
    1.3061    1.9718   10.5358 C   0  0  0  0  0  0  0  0  0  0  0  0
    0.8505    1.8111    9.0964 C   0  0  0  0  0  0  0  0  0  0  0  0
    0.6302    3.1578    8.4868 C   0  0  0  0  0  0  0  0  0  0  0  0
   -0.1824    0.8633    8.9373 N   0  0  0  0  0  0  0  0  0  0  0  0
   -0.6355    0.1104   10.0275 C   0  0  0  0  0  0  0  0  0  0  0  0
   -0.4585   -1.3918    9.9111 C   0  0  0  0  0  0  0  0  0  0  0  0
   -1.0557   -1.8493    8.5946 C   0  0  0  0  0  0  0  0  0  0  0  0
   -1.1085   -3.1838    8.3595 O   0  0  0  0  0  0  0  0  0  0  0  0
   -1.5780   -3.9967    7.4047 C   0  0  0  0  0  0  0  0  0  0  0  0
   -1.9074   -3.5245    6.1547 C   0  0  0  0  0  0  0  0  0  0  0  0
   -2.3898   -4.4046    5.2069 C   0  0  0  0  0  0  0  0  0  0  0  0
   -2.5494   -5.7343    5.4764 C   0  0  0  0  0  0  0  0  0  0  0  0
   -2.2143   -6.2070    6.7437 C   0  0  0  0  0  0  0  0  0  0  0  0
   -1.7319   -5.3625    7.7122 C   0  0  0  0  0  0  0  0  0  0  0  0
   -1.4972   -6.1223    8.8372 C   0  0  0  0  0  0  0  0  0  0  0  0
   -1.0206   -5.8255   10.0894 C   0  0  0  0  0  0  0  0  0  0  0  0
   -0.8720   -6.7976   11.0714 C   0  0  0  0  0  0  0  0  0  0  0  0
   -1.2085   -8.1081   10.7993 C   0  0  0  0  0  0  0  0  0  0  0  0
   -1.6887   -8.4130    9.5414 C   0  0  0  0  0  0  0  0  0  0  0  0
   -1.8340   -7.4304    8.5634 C   0  0  0  0  0  0  0  0  0  0  0  0
   -2.2642   -7.4465    7.2885 N   0  0  0  0  0  0  0  0  0  0  0  0
   -1.1817   -1.9776   10.9823 O   0  0  0  0  0  0  0  0  0  0  0  0
  1  2  1  0
  2  3  1  0
  2  4  1  0
  4  5  1  0
  5  6  1  0
  6  7  1  0
  7  8  1  0
  8  9  1  0
  9 10  2  0
 10 11  1  0
 11 12  2  0
 12 13  1  0
 13 14  2  0
 14 15  1  0
 15 16  2  0
 16 17  1  0
 17 18  2  0
 18 19  1  0
 19 20  2  0
 20 21  1  0
  6 22  1  0
 14  9  1  0
 21 13  1  0
 20 15  1  0
M  END
$$$$
