
     RDKit          3D

 22 24  0  0  0  0  0  0  0  0999 V2000
    2.7015   -1.3926   11.2641 C   0  0  0  0  0  0  0  0  0  0  0  0
    1.1970   -1.1967   11.2077 C   0  0  0  0  0  0  0  0  0  0  0  0
    0.5314   -2.1527   12.1440 C   0  0  0  0  0  0  0  0  0  0  0  0
    0.6882   -1.1342    9.8932 N   0  0  0  0  0  0  0  0  0  0  0  0
   -0.6834   -1.2767    9.6505 C   0  0  0  0  0  0  0  0  0  0  0  0
   -1.1607   -0.8328    8.2805 C   0  0  0  0  0  0  0  0  0  0  0  0
   -0.9503   -1.9717    7.3019 C   0  0  0  0  0  0  0  0  0  0  0  0
   -1.3802   -3.2038    7.6711 O   0  0  0  0  0  0  0  0  0  0  0  0
   -1.7567   -4.3368    7.0650 C   0  0  0  0  0  0  0  0  0  0  0  0
   -2.1190   -4.3574    5.7375 C   0  0  0  0  0  0  0  0  0  0  0  0
   -2.5015   -5.5521    5.1613 C   0  0  0  0  0  0  0  0  0  0  0  0
   -2.5304   -6.7170    5.8744 C   0  0  0  0  0  0  0  0  0  0  0  0
   -2.1624   -6.6903    7.2182 C   0  0  0  0  0  0  0  0  0  0  0  0
   -1.7765   -5.5218    7.8260 C   0  0  0  0  0  0  0  0  0  0  0  0
   -1.4784   -5.8220    9.1371 C   0  0  0  0  0  0  0  0  0  0  0  0
   -1.0464   -5.0681   10.1993 C   0  0  0  0  0  0  0  0  0  0  0  0
   -0.8113   -5.6241   11.4511 C   0  0  0  0  0  0  0  0  0  0  0  0
   -1.0126   -6.9744   11.6533 C   0  0  0  0  0  0  0  0  0  0  0  0
   -1.4474   -7.7382   10.5887 C   0  0  0  0  0  0  0  0  0  0  0  0
   -1.6802   -7.1706    9.3370 C   0  0  0  0  0  0  0  0  0  0  0  0
   -2.0938   -7.6657    8.1561 N   0  0  0  0  0  0  0  0  0  0  0  0
   -0.3524    0.2690    7.8980 O   0  0  0  0  0  0  0  0  0  0  0  0
  1  2  1  0
  2  3  1  0
  2  4  1  0
  4  5  1  0
  5  6  1  0
  6  7  1  0
  7  8  1  0
  8  9  1  0
  9 10  2  0
 10 11  1  0
 11 12  2  0
 12 13  1  0
 13 14  2  0
 14 15  1  0
 15 16  2  0
 16 17  1  0
 17 18  2  0
 18 19  1  0
 19 20  2  0
 20 21  1  0
  6 22  1  0
 14  9  1  0
 21 13  1  0
 20 15  1  0
M  END
$$$$
