
     RDKit          3D

 22 24  0  0  0  0  0  0  0  0999 V2000
    2.7644    1.2716   11.9033 C   0  0  0  0  0  0  0  0  0  0  0  0
    1.9050    0.0252   11.7901 C   0  0  0  0  0  0  0  0  0  0  0  0
    2.7544   -1.1890   11.9853 C   0  0  0  0  0  0  0  0  0  0  0  0
    1.0521    0.0317   10.6662 N   0  0  0  0  0  0  0  0  0  0  0  0
   -0.1473   -0.6907   10.6752 C   0  0  0  0  0  0  0  0  0  0  0  0
   -1.0096   -0.5535    9.4345 C   0  0  0  0  0  0  0  0  0  0  0  0
   -2.0929   -1.6136    9.4781 C   0  0  0  0  0  0  0  0  0  0  0  0
   -1.7387   -2.8859    9.1703 O   0  0  0  0  0  0  0  0  0  0  0  0
   -1.8542   -4.1002    9.7226 C   0  0  0  0  0  0  0  0  0  0  0  0
   -1.8224   -4.2767   11.0871 C   0  0  0  0  0  0  0  0  0  0  0  0
   -1.9434   -5.5505   11.6053 C   0  0  0  0  0  0  0  0  0  0  0  0
   -2.0942   -6.6429   10.7989 C   0  0  0  0  0  0  0  0  0  0  0  0
   -2.1258   -6.4583    9.4181 C   0  0  0  0  0  0  0  0  0  0  0  0
   -2.0084   -5.2072    8.8657 C   0  0  0  0  0  0  0  0  0  0  0  0
   -2.0773   -5.3561    7.4979 C   0  0  0  0  0  0  0  0  0  0  0  0
   -2.0207   -4.4697    6.4518 C   0  0  0  0  0  0  0  0  0  0  0  0
   -2.1187   -4.8834    5.1286 C   0  0  0  0  0  0  0  0  0  0  0  0
   -2.2781   -6.2226    4.8361 C   0  0  0  0  0  0  0  0  0  0  0  0
   -2.3355   -7.1194    5.8841 C   0  0  0  0  0  0  0  0  0  0  0  0
   -2.2362   -6.6941    7.2079 C   0  0  0  0  0  0  0  0  0  0  0  0
   -2.2615   -7.3327    8.3921 N   0  0  0  0  0  0  0  0  0  0  0  0
   -0.1673   -0.7901    8.3173 O   0  0  0  0  0  0  0  0  0  0  0  0
  1  2  1  0
  2  3  1  0
  2  4  1  0
  4  5  1  0
  5  6  1  0
  6  7  1  0
  7  8  1  0
  8  9  1  0
  9 10  2  0
 10 11  1  0
 11 12  2  0
 12 13  1  0
 13 14  2  0
 14 15  1  0
 15 16  2  0
 16 17  1  0
 17 18  2  0
 18 19  1  0
 19 20  2  0
 20 21  1  0
  6 22  1  0
 14  9  1  0
 21 13  1  0
 20 15  1  0
M  END
$$$$
