
     RDKit          3D

 22 24  0  0  0  0  0  0  0  0999 V2000
    0.6404   -0.0756   12.2374 C   0  0  0  0  0  0  0  0  0  0  0  0
    1.0794    0.7082   11.0135 C   0  0  0  0  0  0  0  0  0  0  0  0
    1.3095    2.1365   11.3886 C   0  0  0  0  0  0  0  0  0  0  0  0
    0.2781    0.4693    9.8770 N   0  0  0  0  0  0  0  0  0  0  0  0
    0.3120   -0.7701    9.2266 C   0  0  0  0  0  0  0  0  0  0  0  0
   -0.5051   -0.8691    7.9521 C   0  0  0  0  0  0  0  0  0  0  0  0
   -0.3006   -2.2463    7.3515 C   0  0  0  0  0  0  0  0  0  0  0  0
   -1.2179   -3.2011    7.6444 O   0  0  0  0  0  0  0  0  0  0  0  0
   -1.7114   -4.3022    7.0638 C   0  0  0  0  0  0  0  0  0  0  0  0
   -2.1485   -4.2941    5.7589 C   0  0  0  0  0  0  0  0  0  0  0  0
   -2.6510   -5.4562    5.2087 C   0  0  0  0  0  0  0  0  0  0  0  0
   -2.7263   -6.6166    5.9258 C   0  0  0  0  0  0  0  0  0  0  0  0
   -2.2822   -6.6191    7.2466 C   0  0  0  0  0  0  0  0  0  0  0  0
   -1.7765   -5.4833    7.8283 C   0  0  0  0  0  0  0  0  0  0  0  0
   -1.4282   -5.8065    9.1214 C   0  0  0  0  0  0  0  0  0  0  0  0
   -0.8820   -5.0882   10.1553 C   0  0  0  0  0  0  0  0  0  0  0  0
   -0.6188   -5.6618   11.3935 C   0  0  0  0  0  0  0  0  0  0  0  0
   -0.9084   -6.9935   11.6108 C   0  0  0  0  0  0  0  0  0  0  0  0
   -1.4582   -7.7215   10.5746 C   0  0  0  0  0  0  0  0  0  0  0  0
   -1.7184   -7.1366    9.3364 C   0  0  0  0  0  0  0  0  0  0  0  0
   -2.2336   -7.5980    8.1821 N   0  0  0  0  0  0  0  0  0  0  0  0
    0.0007    0.1112    7.0595 O   0  0  0  0  0  0  0  0  0  0  0  0
  1  2  1  0
  2  3  1  0
  2  4  1  0
  4  5  1  0
  5  6  1  0
  6  7  1  0
  7  8  1  0
  8  9  1  0
  9 10  2  0
 10 11  1  0
 11 12  2  0
 12 13  1  0
 13 14  2  0
 14 15  1  0
 15 16  2  0
 16 17  1  0
 17 18  2  0
 18 19  1  0
 19 20  2  0
 20 21  1  0
  6 22  1  0
 14  9  1  0
 21 13  1  0
 20 15  1  0
M  END
$$$$
