
     RDKit          3D

 22 24  0  0  0  0  0  0  0  0999 V2000
   -0.2050    1.1859   12.0976 C   0  0  0  0  0  0  0  0  0  0  0  0
   -0.3480    0.9820   10.5999 C   0  0  0  0  0  0  0  0  0  0  0  0
   -0.8381    2.2438    9.9665 C   0  0  0  0  0  0  0  0  0  0  0  0
   -1.0255   -0.2073   10.2577 N   0  0  0  0  0  0  0  0  0  0  0  0
   -0.3418   -1.2718    9.6577 C   0  0  0  0  0  0  0  0  0  0  0  0
    0.0723   -1.0598    8.2136 C   0  0  0  0  0  0  0  0  0  0  0  0
   -0.8067   -1.9198    7.3265 C   0  0  0  0  0  0  0  0  0  0  0  0
   -0.7383   -3.2643    7.4896 O   0  0  0  0  0  0  0  0  0  0  0  0
   -1.3002   -4.3511    6.9454 C   0  0  0  0  0  0  0  0  0  0  0  0
   -1.8511   -4.3223    5.6846 C   0  0  0  0  0  0  0  0  0  0  0  0
   -2.4203   -5.4703    5.1709 C   0  0  0  0  0  0  0  0  0  0  0  0
   -2.4516   -6.6367    5.8815 C   0  0  0  0  0  0  0  0  0  0  0  0
   -1.8923   -6.6601    7.1576 C   0  0  0  0  0  0  0  0  0  0  0  0
   -1.3176   -5.5389    7.7021 C   0  0  0  0  0  0  0  0  0  0  0  0
   -0.8616   -5.8811    8.9562 C   0  0  0  0  0  0  0  0  0  0  0  0
   -0.2136   -5.1826    9.9439 C   0  0  0  0  0  0  0  0  0  0  0  0
    0.1484   -5.7733   11.1487 C   0  0  0  0  0  0  0  0  0  0  0  0
   -0.1436   -7.1023   11.3789 C   0  0  0  0  0  0  0  0  0  0  0  0
   -0.7956   -7.8103   10.3893 C   0  0  0  0  0  0  0  0  0  0  0  0
   -1.1544   -7.2085    9.1843 C   0  0  0  0  0  0  0  0  0  0  0  0
   -1.7778   -7.6494    8.0763 N   0  0  0  0  0  0  0  0  0  0  0  0
    1.4185   -1.4941    8.1015 O   0  0  0  0  0  0  0  0  0  0  0  0
  1  2  1  0
  2  3  1  0
  2  4  1  0
  4  5  1  0
  5  6  1  0
  6  7  1  0
  7  8  1  0
  8  9  1  0
  9 10  2  0
 10 11  1  0
 11 12  2  0
 12 13  1  0
 13 14  2  0
 14 15  1  0
 15 16  2  0
 16 17  1  0
 17 18  2  0
 18 19  1  0
 19 20  2  0
 20 21  1  0
  6 22  1  0
 14  9  1  0
 21 13  1  0
 20 15  1  0
M  END
$$$$
