
     RDKit          3D

 22 24  0  0  0  0  0  0  0  0999 V2000
    0.1962   -0.2482   12.1445 C   0  0  0  0  0  0  0  0  0  0  0  0
    1.0580    0.0684   10.9353 C   0  0  0  0  0  0  0  0  0  0  0  0
    1.9974    1.1826   11.2669 C   0  0  0  0  0  0  0  0  0  0  0  0
    0.3217    0.1912    9.7380 N   0  0  0  0  0  0  0  0  0  0  0  0
    0.0327   -0.9353    8.9582 C   0  0  0  0  0  0  0  0  0  0  0  0
   -0.6561   -0.6623    7.6343 C   0  0  0  0  0  0  0  0  0  0  0  0
   -0.5709   -1.9106    6.7777 C   0  0  0  0  0  0  0  0  0  0  0  0
   -1.1411   -3.0426    7.2598 O   0  0  0  0  0  0  0  0  0  0  0  0
   -1.6780   -4.1631    6.7608 C   0  0  0  0  0  0  0  0  0  0  0  0
   -2.1567   -4.2203    5.4718 C   0  0  0  0  0  0  0  0  0  0  0  0
   -2.7029   -5.3998    5.0069 C   0  0  0  0  0  0  0  0  0  0  0  0
   -2.7813   -6.5143    5.7932 C   0  0  0  0  0  0  0  0  0  0  0  0
   -2.2950   -6.4507    7.0975 C   0  0  0  0  0  0  0  0  0  0  0  0
   -1.7452   -5.2958    7.5952 C   0  0  0  0  0  0  0  0  0  0  0  0
   -1.3628   -5.5515    8.8938 C   0  0  0  0  0  0  0  0  0  0  0  0
   -0.7673   -4.7879    9.8662 C   0  0  0  0  0  0  0  0  0  0  0  0
   -0.4774   -5.2946   11.1274 C   0  0  0  0  0  0  0  0  0  0  0  0
   -0.7900   -6.6039   11.4317 C   0  0  0  0  0  0  0  0  0  0  0  0
   -1.3894   -7.3773   10.4577 C   0  0  0  0  0  0  0  0  0  0  0  0
   -1.6760   -6.8593    9.1958 C   0  0  0  0  0  0  0  0  0  0  0  0
   -2.2386   -7.3744    8.0872 N   0  0  0  0  0  0  0  0  0  0  0  0
    0.0603    0.3881    7.0043 O   0  0  0  0  0  0  0  0  0  0  0  0
  1  2  1  0
  2  3  1  0
  2  4  1  0
  4  5  1  0
  5  6  1  0
  6  7  1  0
  7  8  1  0
  8  9  1  0
  9 10  2  0
 10 11  1  0
 11 12  2  0
 12 13  1  0
 13 14  2  0
 14 15  1  0
 15 16  2  0
 16 17  1  0
 17 18  2  0
 18 19  1  0
 19 20  2  0
 20 21  1  0
  6 22  1  0
 14  9  1  0
 21 13  1  0
 20 15  1  0
M  END
$$$$
