
     RDKit          3D

 22 24  0  0  0  0  0  0  0  0999 V2000
    0.6105    1.7232   13.8958 C   0  0  0  0  0  0  0  0  0  0  0  0
    1.8045    1.0234   13.2716 C   0  0  0  0  0  0  0  0  0  0  0  0
    2.9156    2.0041   13.0778 C   0  0  0  0  0  0  0  0  0  0  0  0
    1.4666    0.2169   12.1643 N   0  0  0  0  0  0  0  0  0  0  0  0
    1.8538   -1.1278   12.1152 C   0  0  0  0  0  0  0  0  0  0  0  0
    1.4192   -1.8949   10.8805 C   0  0  0  0  0  0  0  0  0  0  0  0
   -0.0591   -1.6468   10.6517 C   0  0  0  0  0  0  0  0  0  0  0  0
   -0.7356   -2.5436    9.8920 O   0  0  0  0  0  0  0  0  0  0  0  0
   -1.9486   -2.6432    9.3338 C   0  0  0  0  0  0  0  0  0  0  0  0
   -2.8239   -1.5813    9.3188 C   0  0  0  0  0  0  0  0  0  0  0  0
   -4.0638   -1.7376    8.7323 C   0  0  0  0  0  0  0  0  0  0  0  0
   -4.4464   -2.9201    8.1651 C   0  0  0  0  0  0  0  0  0  0  0  0
   -3.5561   -3.9919    8.1831 C   0  0  0  0  0  0  0  0  0  0  0  0
   -2.3148   -3.8749    8.7570 C   0  0  0  0  0  0  0  0  0  0  0  0
   -1.6821   -5.0902    8.6142 C   0  0  0  0  0  0  0  0  0  0  0  0
   -0.4456   -5.5557    8.9854 C   0  0  0  0  0  0  0  0  0  0  0  0
   -0.0358   -6.8561    8.7159 C   0  0  0  0  0  0  0  0  0  0  0  0
   -0.8835   -7.7221    8.0557 C   0  0  0  0  0  0  0  0  0  0  0  0
   -2.1289   -7.2599    7.6798 C   0  0  0  0  0  0  0  0  0  0  0  0
   -2.5303   -5.9536    7.9549 C   0  0  0  0  0  0  0  0  0  0  0  0
   -3.6551   -5.2573    7.7089 N   0  0  0  0  0  0  0  0  0  0  0  0
    1.6263   -3.2716   11.1549 O   0  0  0  0  0  0  0  0  0  0  0  0
  1  2  1  0
  2  3  1  0
  2  4  1  0
  4  5  1  0
  5  6  1  0
  6  7  1  0
  7  8  1  0
  8  9  1  0
  9 10  2  0
 10 11  1  0
 11 12  2  0
 12 13  1  0
 13 14  2  0
 14 15  1  0
 15 16  2  0
 16 17  1  0
 17 18  2  0
 18 19  1  0
 19 20  2  0
 20 21  1  0
  6 22  1  0
 14  9  1  0
 21 13  1  0
 20 15  1  0
M  END
$$$$
