
     RDKit          3D

 22 24  0  0  0  0  0  0  0  0999 V2000
    2.0404    2.0903   10.6599 C   0  0  0  0  0  0  0  0  0  0  0  0
    1.4868    0.6949   10.8865 C   0  0  0  0  0  0  0  0  0  0  0  0
    2.4411   -0.0933   11.7243 C   0  0  0  0  0  0  0  0  0  0  0  0
    1.0164    0.0794    9.7073 N   0  0  0  0  0  0  0  0  0  0  0  0
   -0.3199    0.2184    9.3130 C   0  0  0  0  0  0  0  0  0  0  0  0
   -1.1820   -1.0220    9.4541 C   0  0  0  0  0  0  0  0  0  0  0  0
   -0.9494   -1.9130    8.2494 C   0  0  0  0  0  0  0  0  0  0  0  0
   -1.5026   -3.1510    8.2684 O   0  0  0  0  0  0  0  0  0  0  0  0
   -1.7655   -4.1245    7.3875 C   0  0  0  0  0  0  0  0  0  0  0  0
   -1.9671   -3.8535    6.0534 C   0  0  0  0  0  0  0  0  0  0  0  0
   -2.2375   -4.8939    5.1872 C   0  0  0  0  0  0  0  0  0  0  0  0
   -2.3106   -6.1879    5.6191 C   0  0  0  0  0  0  0  0  0  0  0  0
   -2.1056   -6.4565    6.9710 C   0  0  0  0  0  0  0  0  0  0  0  0
   -1.8347   -5.4486    7.8625 C   0  0  0  0  0  0  0  0  0  0  0  0
   -1.6839   -6.0293    9.1027 C   0  0  0  0  0  0  0  0  0  0  0  0
   -1.4070   -5.5260   10.3490 C   0  0  0  0  0  0  0  0  0  0  0  0
   -1.3029   -6.3435   11.4680 C   0  0  0  0  0  0  0  0  0  0  0  0
   -1.4801   -7.7065   11.3437 C   0  0  0  0  0  0  0  0  0  0  0  0
   -1.7593   -8.2190   10.0925 C   0  0  0  0  0  0  0  0  0  0  0  0
   -1.8615   -7.3902    8.9764 C   0  0  0  0  0  0  0  0  0  0  0  0
   -2.1151   -7.6147    7.6741 N   0  0  0  0  0  0  0  0  0  0  0  0
   -2.5329   -0.5880    9.4620 O   0  0  0  0  0  0  0  0  0  0  0  0
  1  2  1  0
  2  3  1  0
  2  4  1  0
  4  5  1  0
  5  6  1  0
  6  7  1  0
  7  8  1  0
  8  9  1  0
  9 10  2  0
 10 11  1  0
 11 12  2  0
 12 13  1  0
 13 14  2  0
 14 15  1  0
 15 16  2  0
 16 17  1  0
 17 18  2  0
 18 19  1  0
 19 20  2  0
 20 21  1  0
  6 22  1  0
 14  9  1  0
 21 13  1  0
 20 15  1  0
M  END
$$$$
