
     RDKit          3D

 22 24  0  0  0  0  0  0  0  0999 V2000
   -0.2495   -0.3716    6.7518 C   0  0  0  0  0  0  0  0  0  0  0  0
   -0.9612   -0.6337    8.0671 C   0  0  0  0  0  0  0  0  0  0  0  0
   -1.9731    0.4386    8.3120 C   0  0  0  0  0  0  0  0  0  0  0  0
   -0.0835   -0.9357    9.1296 N   0  0  0  0  0  0  0  0  0  0  0  0
    0.7723   -2.0415    9.0571 C   0  0  0  0  0  0  0  0  0  0  0  0
    1.6184   -2.3031   10.2890 C   0  0  0  0  0  0  0  0  0  0  0  0
    1.1784   -3.6151   10.9089 C   0  0  0  0  0  0  0  0  0  0  0  0
    0.3947   -4.4309   10.1611 O   0  0  0  0  0  0  0  0  0  0  0  0
   -0.1654   -5.6408   10.2842 C   0  0  0  0  0  0  0  0  0  0  0  0
    0.0213   -6.4097   11.4103 C   0  0  0  0  0  0  0  0  0  0  0  0
   -0.5769   -7.6515   11.4857 C   0  0  0  0  0  0  0  0  0  0  0  0
   -1.3508   -8.1391   10.4710 C   0  0  0  0  0  0  0  0  0  0  0  0
   -1.5365   -7.3563    9.3332 C   0  0  0  0  0  0  0  0  0  0  0  0
   -0.9579   -6.1167    9.2216 C   0  0  0  0  0  0  0  0  0  0  0  0
   -1.3266   -5.6021    7.9980 C   0  0  0  0  0  0  0  0  0  0  0  0
   -1.0549   -4.4209    7.3545 C   0  0  0  0  0  0  0  0  0  0  0  0
   -1.5626   -4.1347    6.0928 C   0  0  0  0  0  0  0  0  0  0  0  0
   -2.3668   -5.0536    5.4497 C   0  0  0  0  0  0  0  0  0  0  0  0
   -2.6435   -6.2440    6.0918 C   0  0  0  0  0  0  0  0  0  0  0  0
   -2.1294   -6.5212    7.3574 C   0  0  0  0  0  0  0  0  0  0  0  0
   -2.2359   -7.5708    8.1928 N   0  0  0  0  0  0  0  0  0  0  0  0
    1.3615   -1.2453   11.1992 O   0  0  0  0  0  0  0  0  0  0  0  0
  1  2  1  0
  2  3  1  0
  2  4  1  0
  4  5  1  0
  5  6  1  0
  6  7  1  0
  7  8  1  0
  8  9  1  0
  9 10  2  0
 10 11  1  0
 11 12  2  0
 12 13  1  0
 13 14  2  0
 14 15  1  0
 15 16  2  0
 16 17  1  0
 17 18  2  0
 18 19  1  0
 19 20  2  0
 20 21  1  0
  6 22  1  0
 14  9  1  0
 21 13  1  0
 20 15  1  0
M  END
$$$$
