
     RDKit          3D

 22 24  0  0  0  0  0  0  0  0999 V2000
    0.6015   -0.8278   12.4602 C   0  0  0  0  0  0  0  0  0  0  0  0
    0.8493   -0.5296   10.9923 C   0  0  0  0  0  0  0  0  0  0  0  0
    1.5848    0.7648   10.8608 C   0  0  0  0  0  0  0  0  0  0  0  0
   -0.2955   -0.6964   10.1847 N   0  0  0  0  0  0  0  0  0  0  0  0
   -0.3007   -1.6233    9.1352 C   0  0  0  0  0  0  0  0  0  0  0  0
   -0.6996   -1.0792    7.7763 C   0  0  0  0  0  0  0  0  0  0  0  0
   -0.7045   -2.2220    6.7797 C   0  0  0  0  0  0  0  0  0  0  0  0
   -0.9775   -3.4641    7.2505 O   0  0  0  0  0  0  0  0  0  0  0  0
   -1.5129   -4.5982    6.7815 C   0  0  0  0  0  0  0  0  0  0  0  0
   -2.0096   -4.6844    5.5009 C   0  0  0  0  0  0  0  0  0  0  0  0
   -2.5535   -5.8769    5.0674 C   0  0  0  0  0  0  0  0  0  0  0  0
   -2.6122   -6.9760    5.8765 C   0  0  0  0  0  0  0  0  0  0  0  0
   -2.1078   -6.8831    7.1722 C   0  0  0  0  0  0  0  0  0  0  0  0
   -1.5596   -5.7145    7.6390 C   0  0  0  0  0  0  0  0  0  0  0  0
   -1.1567   -5.9417    8.9367 C   0  0  0  0  0  0  0  0  0  0  0  0
   -0.5532   -5.1545    9.8851 C   0  0  0  0  0  0  0  0  0  0  0  0
   -0.2413   -5.6341   11.1517 C   0  0  0  0  0  0  0  0  0  0  0  0
   -0.5396   -6.9393   11.4863 C   0  0  0  0  0  0  0  0  0  0  0  0
   -1.1471   -7.7362   10.5366 C   0  0  0  0  0  0  0  0  0  0  0  0
   -1.4556   -7.2454    9.2689 C   0  0  0  0  0  0  0  0  0  0  0  0
   -2.0302   -7.7865    8.1790 N   0  0  0  0  0  0  0  0  0  0  0  0
    0.2913   -0.1351    7.4017 O   0  0  0  0  0  0  0  0  0  0  0  0
  1  2  1  0
  2  3  1  0
  2  4  1  0
  4  5  1  0
  5  6  1  0
  6  7  1  0
  7  8  1  0
  8  9  1  0
  9 10  2  0
 10 11  1  0
 11 12  2  0
 12 13  1  0
 13 14  2  0
 14 15  1  0
 15 16  2  0
 16 17  1  0
 17 18  2  0
 18 19  1  0
 19 20  2  0
 20 21  1  0
  6 22  1  0
 14  9  1  0
 21 13  1  0
 20 15  1  0
M  END
$$$$
