
     RDKit          3D

 22 24  0  0  0  0  0  0  0  0999 V2000
    2.1984    0.7287   10.9942 C   0  0  0  0  0  0  0  0  0  0  0  0
    1.0610   -0.2708   11.1055 C   0  0  0  0  0  0  0  0  0  0  0  0
    1.2250   -1.0803   12.3511 C   0  0  0  0  0  0  0  0  0  0  0  0
    0.8198   -0.9818    9.9110 N   0  0  0  0  0  0  0  0  0  0  0  0
   -0.4880   -1.2731    9.5046 C   0  0  0  0  0  0  0  0  0  0  0  0
   -0.9289   -0.6419    8.1974 C   0  0  0  0  0  0  0  0  0  0  0  0
   -0.9909   -1.7219    7.1348 C   0  0  0  0  0  0  0  0  0  0  0  0
   -1.4407   -2.9453    7.5090 O   0  0  0  0  0  0  0  0  0  0  0  0
   -1.7960   -4.0885    6.9093 C   0  0  0  0  0  0  0  0  0  0  0  0
   -2.1650   -4.1221    5.5839 C   0  0  0  0  0  0  0  0  0  0  0  0
   -2.5250   -5.3270    5.0144 C   0  0  0  0  0  0  0  0  0  0  0  0
   -2.5249   -6.4894    5.7320 C   0  0  0  0  0  0  0  0  0  0  0  0
   -2.1503   -6.4496    7.0736 C   0  0  0  0  0  0  0  0  0  0  0  0
   -1.7862   -5.2707    7.6749 C   0  0  0  0  0  0  0  0  0  0  0  0
   -1.4747   -5.5593    8.9854 C   0  0  0  0  0  0  0  0  0  0  0  0
   -1.0532   -4.7921   10.0424 C   0  0  0  0  0  0  0  0  0  0  0  0
   -0.7994   -5.3381   11.2950 C   0  0  0  0  0  0  0  0  0  0  0  0
   -0.9705   -6.6916   11.5034 C   0  0  0  0  0  0  0  0  0  0  0  0
   -1.3945   -7.4687   10.4441 C   0  0  0  0  0  0  0  0  0  0  0  0
   -1.6463   -6.9112    9.1916 C   0  0  0  0  0  0  0  0  0  0  0  0
   -2.0556   -7.4196    8.0149 N   0  0  0  0  0  0  0  0  0  0  0  0
    0.0628    0.3087    7.8420 O   0  0  0  0  0  0  0  0  0  0  0  0
  1  2  1  0
  2  3  1  0
  2  4  1  0
  4  5  1  0
  5  6  1  0
  6  7  1  0
  7  8  1  0
  8  9  1  0
  9 10  2  0
 10 11  1  0
 11 12  2  0
 12 13  1  0
 13 14  2  0
 14 15  1  0
 15 16  2  0
 16 17  1  0
 17 18  2  0
 18 19  1  0
 19 20  2  0
 20 21  1  0
  6 22  1  0
 14  9  1  0
 21 13  1  0
 20 15  1  0
M  END
$$$$
