
     RDKit          3D

 22 24  0  0  0  0  0  0  0  0999 V2000
    1.6913    0.8542   11.1525 C   0  0  0  0  0  0  0  0  0  0  0  0
    0.8337   -0.3771   10.9210 C   0  0  0  0  0  0  0  0  0  0  0  0
    1.3526   -1.5116   11.7441 C   0  0  0  0  0  0  0  0  0  0  0  0
    0.5867   -0.6405    9.5571 N   0  0  0  0  0  0  0  0  0  0  0  0
   -0.7238   -0.7515    9.0768 C   0  0  0  0  0  0  0  0  0  0  0  0
   -0.8645   -0.9152    7.5751 C   0  0  0  0  0  0  0  0  0  0  0  0
   -0.2436   -2.2384    7.1719 C   0  0  0  0  0  0  0  0  0  0  0  0
   -0.9153   -3.3712    7.4953 O   0  0  0  0  0  0  0  0  0  0  0  0
   -1.4473   -4.4174    6.8508 C   0  0  0  0  0  0  0  0  0  0  0  0
   -1.9068   -4.3091    5.5582 C   0  0  0  0  0  0  0  0  0  0  0  0
   -2.4488   -5.4181    4.9400 C   0  0  0  0  0  0  0  0  0  0  0  0
   -2.5417   -6.6227    5.5778 C   0  0  0  0  0  0  0  0  0  0  0  0
   -2.0747   -6.7266    6.8866 C   0  0  0  0  0  0  0  0  0  0  0  0
   -1.5296   -5.6462    7.5343 C   0  0  0  0  0  0  0  0  0  0  0  0
   -1.1673   -6.0657    8.7954 C   0  0  0  0  0  0  0  0  0  0  0  0
   -0.5846   -5.4336    9.8652 C   0  0  0  0  0  0  0  0  0  0  0  0
   -0.3147   -6.0970   11.0562 C   0  0  0  0  0  0  0  0  0  0  0  0
   -0.6349   -7.4329   11.1879 C   0  0  0  0  0  0  0  0  0  0  0  0
   -1.2215   -8.0743   10.1154 C   0  0  0  0  0  0  0  0  0  0  0  0
   -1.4880   -7.3998    8.9250 C   0  0  0  0  0  0  0  0  0  0  0  0
   -2.0352   -7.7682    7.7522 N   0  0  0  0  0  0  0  0  0  0  0  0
   -0.1388    0.1456    6.9737 O   0  0  0  0  0  0  0  0  0  0  0  0
  1  2  1  0
  2  3  1  0
  2  4  1  0
  4  5  1  0
  5  6  1  0
  6  7  1  0
  7  8  1  0
  8  9  1  0
  9 10  2  0
 10 11  1  0
 11 12  2  0
 12 13  1  0
 13 14  2  0
 14 15  1  0
 15 16  2  0
 16 17  1  0
 17 18  2  0
 18 19  1  0
 19 20  2  0
 20 21  1  0
  6 22  1  0
 14  9  1  0
 21 13  1  0
 20 15  1  0
M  END
$$$$
