
     RDKit          3D

 22 24  0  0  0  0  0  0  0  0999 V2000
    1.7749    0.2905   11.7860 C   0  0  0  0  0  0  0  0  0  0  0  0
    1.3955    1.0778   10.5445 C   0  0  0  0  0  0  0  0  0  0  0  0
    2.2067    2.3313   10.4783 C   0  0  0  0  0  0  0  0  0  0  0  0
    0.0020    1.2109   10.3684 N   0  0  0  0  0  0  0  0  0  0  0  0
   -0.6552    0.5347    9.3333 C   0  0  0  0  0  0  0  0  0  0  0  0
   -0.9541   -0.9308    9.5879 C   0  0  0  0  0  0  0  0  0  0  0  0
   -0.7627   -1.6961    8.2929 C   0  0  0  0  0  0  0  0  0  0  0  0
   -1.1475   -2.9963    8.2697 O   0  0  0  0  0  0  0  0  0  0  0  0
   -1.5746   -3.8796    7.3585 C   0  0  0  0  0  0  0  0  0  0  0  0
   -1.8782   -3.4972    6.0718 C   0  0  0  0  0  0  0  0  0  0  0  0
   -2.3169   -4.4475    5.1717 C   0  0  0  0  0  0  0  0  0  0  0  0
   -2.4582   -5.7598    5.5240 C   0  0  0  0  0  0  0  0  0  0  0  0
   -2.1493   -6.1413    6.8282 C   0  0  0  0  0  0  0  0  0  0  0  0
   -1.7104   -5.2253    7.7513 C   0  0  0  0  0  0  0  0  0  0  0  0
   -1.4925   -5.9047    8.9297 C   0  0  0  0  0  0  0  0  0  0  0  0
   -1.0567   -5.5166   10.1718 C   0  0  0  0  0  0  0  0  0  0  0  0
   -0.9166   -6.4191   11.2194 C   0  0  0  0  0  0  0  0  0  0  0  0
   -1.2199   -7.7513   11.0255 C   0  0  0  0  0  0  0  0  0  0  0  0
   -1.6591   -8.1480    9.7782 C   0  0  0  0  0  0  0  0  0  0  0  0
   -1.7962   -7.2347    8.7341 C   0  0  0  0  0  0  0  0  0  0  0  0
   -2.1904   -7.3434    7.4521 N   0  0  0  0  0  0  0  0  0  0  0  0
   -2.3143   -1.0127    9.9839 O   0  0  0  0  0  0  0  0  0  0  0  0
  1  2  1  0
  2  3  1  0
  2  4  1  0
  4  5  1  0
  5  6  1  0
  6  7  1  0
  7  8  1  0
  8  9  1  0
  9 10  2  0
 10 11  1  0
 11 12  2  0
 12 13  1  0
 13 14  2  0
 14 15  1  0
 15 16  2  0
 16 17  1  0
 17 18  2  0
 18 19  1  0
 19 20  2  0
 20 21  1  0
  6 22  1  0
 14  9  1  0
 21 13  1  0
 20 15  1  0
M  END
$$$$
