
     RDKit          3D

 22 24  0  0  0  0  0  0  0  0999 V2000
    1.7175   -0.7717   10.9235 C   0  0  0  0  0  0  0  0  0  0  0  0
    0.5222   -0.2146   10.1713 C   0  0  0  0  0  0  0  0  0  0  0  0
   -0.7149   -0.3969   10.9899 C   0  0  0  0  0  0  0  0  0  0  0  0
    0.4622   -0.6320    8.8249 N   0  0  0  0  0  0  0  0  0  0  0  0
   -0.7547   -0.6382    8.1323 C   0  0  0  0  0  0  0  0  0  0  0  0
   -0.6557   -0.5168    6.6233 C   0  0  0  0  0  0  0  0  0  0  0  0
   -0.4219   -1.8970    6.0407 C   0  0  0  0  0  0  0  0  0  0  0  0
   -1.2432   -2.8969    6.4466 O   0  0  0  0  0  0  0  0  0  0  0  0
   -1.5368   -4.1456    6.0630 C   0  0  0  0  0  0  0  0  0  0  0  0
   -1.4451   -4.5349    4.7461 C   0  0  0  0  0  0  0  0  0  0  0  0
   -1.7617   -5.8341    4.4033 C   0  0  0  0  0  0  0  0  0  0  0  0
   -2.1644   -6.7459    5.3375 C   0  0  0  0  0  0  0  0  0  0  0  0
   -2.2554   -6.3464    6.6693 C   0  0  0  0  0  0  0  0  0  0  0  0
   -1.9492   -5.0633    7.0487 C   0  0  0  0  0  0  0  0  0  0  0  0
   -2.1350   -4.9844    8.4114 C   0  0  0  0  0  0  0  0  0  0  0  0
   -1.9849   -3.9701    9.3235 C   0  0  0  0  0  0  0  0  0  0  0  0
   -2.2418   -4.1517   10.6772 C   0  0  0  0  0  0  0  0  0  0  0  0
   -2.6618   -5.3825   11.1391 C   0  0  0  0  0  0  0  0  0  0  0  0
   -2.8150   -6.4069   10.2264 C   0  0  0  0  0  0  0  0  0  0  0  0
   -2.5547   -6.2143    8.8707 C   0  0  0  0  0  0  0  0  0  0  0  0
   -2.6170   -7.0150    7.7909 N   0  0  0  0  0  0  0  0  0  0  0  0
    0.4679    0.3048    6.3473 O   0  0  0  0  0  0  0  0  0  0  0  0
  1  2  1  0
  2  3  1  0
  2  4  1  0
  4  5  1  0
  5  6  1  0
  6  7  1  0
  7  8  1  0
  8  9  1  0
  9 10  2  0
 10 11  1  0
 11 12  2  0
 12 13  1  0
 13 14  2  0
 14 15  1  0
 15 16  2  0
 16 17  1  0
 17 18  2  0
 18 19  1  0
 19 20  2  0
 20 21  1  0
  6 22  1  0
 14  9  1  0
 21 13  1  0
 20 15  1  0
M  END
$$$$
