
     RDKit          3D

 22 24  0  0  0  0  0  0  0  0999 V2000
    1.2061    1.5052   12.8601 C   0  0  0  0  0  0  0  0  0  0  0  0
    2.0036    0.8517   11.7456 C   0  0  0  0  0  0  0  0  0  0  0  0
    3.3527    1.4883   11.6546 C   0  0  0  0  0  0  0  0  0  0  0  0
    1.2800    0.7178   10.5418 N   0  0  0  0  0  0  0  0  0  0  0  0
    0.6114   -0.4745   10.2389 C   0  0  0  0  0  0  0  0  0  0  0  0
   -0.4981   -0.3658    9.2099 C   0  0  0  0  0  0  0  0  0  0  0  0
   -1.6161   -1.3125    9.6013 C   0  0  0  0  0  0  0  0  0  0  0  0
   -1.5674   -2.5768    9.1132 O   0  0  0  0  0  0  0  0  0  0  0  0
   -1.6719   -3.8218    9.5946 C   0  0  0  0  0  0  0  0  0  0  0  0
   -1.7046   -4.0704   10.9478 C   0  0  0  0  0  0  0  0  0  0  0  0
   -1.8110   -5.3731   11.3919 C   0  0  0  0  0  0  0  0  0  0  0  0
   -1.8848   -6.4247   10.5229 C   0  0  0  0  0  0  0  0  0  0  0  0
   -1.8512   -6.1672    9.1538 C   0  0  0  0  0  0  0  0  0  0  0  0
   -1.7460   -4.8854    8.6743 C   0  0  0  0  0  0  0  0  0  0  0  0
   -1.7396   -4.9627    7.2989 C   0  0  0  0  0  0  0  0  0  0  0  0
   -1.6580   -4.0202    6.3047 C   0  0  0  0  0  0  0  0  0  0  0  0
   -1.6744   -4.3649    4.9585 C   0  0  0  0  0  0  0  0  0  0  0  0
   -1.7753   -5.6907    4.5887 C   0  0  0  0  0  0  0  0  0  0  0  0
   -1.8575   -6.6437    5.5841 C   0  0  0  0  0  0  0  0  0  0  0  0
   -1.8402   -6.2873    6.9316 C   0  0  0  0  0  0  0  0  0  0  0  0
   -1.9057   -6.9890    8.0779 N   0  0  0  0  0  0  0  0  0  0  0  0
    0.0494   -0.7758    7.9666 O   0  0  0  0  0  0  0  0  0  0  0  0
  1  2  1  0
  2  3  1  0
  2  4  1  0
  4  5  1  0
  5  6  1  0
  6  7  1  0
  7  8  1  0
  8  9  1  0
  9 10  2  0
 10 11  1  0
 11 12  2  0
 12 13  1  0
 13 14  2  0
 14 15  1  0
 15 16  2  0
 16 17  1  0
 17 18  2  0
 18 19  1  0
 19 20  2  0
 20 21  1  0
  6 22  1  0
 14  9  1  0
 21 13  1  0
 20 15  1  0
M  END
$$$$
