
     RDKit          3D

 22 24  0  0  0  0  0  0  0  0999 V2000
    0.1223    3.4144    9.3636 C   0  0  0  0  0  0  0  0  0  0  0  0
    0.8057    2.1235    8.9494 C   0  0  0  0  0  0  0  0  0  0  0  0
    1.3814    2.2783    7.5788 C   0  0  0  0  0  0  0  0  0  0  0  0
    0.0232    0.9735    9.1853 N   0  0  0  0  0  0  0  0  0  0  0  0
    0.6274   -0.2749    9.3777 C   0  0  0  0  0  0  0  0  0  0  0  0
   -0.3189   -1.4362    9.6170 C   0  0  0  0  0  0  0  0  0  0  0  0
   -0.7388   -2.0033    8.2749 C   0  0  0  0  0  0  0  0  0  0  0  0
   -0.7856   -3.3529    8.1508 O   0  0  0  0  0  0  0  0  0  0  0  0
   -1.1988   -4.2433    7.2401 C   0  0  0  0  0  0  0  0  0  0  0  0
   -1.4908   -3.8695    5.9482 C   0  0  0  0  0  0  0  0  0  0  0  0
   -1.9154   -4.8267    5.0488 C   0  0  0  0  0  0  0  0  0  0  0  0
   -2.0541   -6.1378    5.4068 C   0  0  0  0  0  0  0  0  0  0  0  0
   -1.7571   -6.5107    6.7162 C   0  0  0  0  0  0  0  0  0  0  0  0
   -1.3323   -5.5874    7.6388 C   0  0  0  0  0  0  0  0  0  0  0  0
   -1.1235   -6.2593    8.8232 C   0  0  0  0  0  0  0  0  0  0  0  0
   -0.7026   -5.8623   10.0677 C   0  0  0  0  0  0  0  0  0  0  0  0
   -0.5691   -6.7584   11.1216 C   0  0  0  0  0  0  0  0  0  0  0  0
   -0.8640   -8.0931   10.9319 C   0  0  0  0  0  0  0  0  0  0  0  0
   -1.2882   -8.4987    9.6823 C   0  0  0  0  0  0  0  0  0  0  0  0
   -1.4187   -7.5919    8.6318 C   0  0  0  0  0  0  0  0  0  0  0  0
   -1.7988   -7.7095    7.3463 N   0  0  0  0  0  0  0  0  0  0  0  0
   -1.4579   -0.9114   10.2810 O   0  0  0  0  0  0  0  0  0  0  0  0
  1  2  1  0
  2  3  1  0
  2  4  1  0
  4  5  1  0
  5  6  1  0
  6  7  1  0
  7  8  1  0
  8  9  1  0
  9 10  2  0
 10 11  1  0
 11 12  2  0
 12 13  1  0
 13 14  2  0
 14 15  1  0
 15 16  2  0
 16 17  1  0
 17 18  2  0
 18 19  1  0
 19 20  2  0
 20 21  1  0
  6 22  1  0
 14  9  1  0
 21 13  1  0
 20 15  1  0
M  END
$$$$
