
     RDKit          3D

 22 24  0  0  0  0  0  0  0  0999 V2000
   -0.3016   -0.2569   11.6912 C   0  0  0  0  0  0  0  0  0  0  0  0
    0.5255   -1.0538   10.6982 C   0  0  0  0  0  0  0  0  0  0  0  0
    1.9506   -1.0895   11.1472 C   0  0  0  0  0  0  0  0  0  0  0  0
    0.2900   -0.6932    9.3546 N   0  0  0  0  0  0  0  0  0  0  0  0
   -0.8003   -1.2224    8.6535 C   0  0  0  0  0  0  0  0  0  0  0  0
   -0.9079   -0.8154    7.1959 C   0  0  0  0  0  0  0  0  0  0  0  0
   -0.9408   -2.0694    6.3441 C   0  0  0  0  0  0  0  0  0  0  0  0
   -1.3105   -3.2272    6.9458 O   0  0  0  0  0  0  0  0  0  0  0  0
   -1.8010   -4.4162    6.5736 C   0  0  0  0  0  0  0  0  0  0  0  0
   -2.3720   -4.6042    5.3357 C   0  0  0  0  0  0  0  0  0  0  0  0
   -2.8649   -5.8499    5.0025 C   0  0  0  0  0  0  0  0  0  0  0  0
   -2.8012   -6.9034    5.8700 C   0  0  0  0  0  0  0  0  0  0  0  0
   -2.2219   -6.7073    7.1221 C   0  0  0  0  0  0  0  0  0  0  0  0
   -1.7210   -5.4833    7.4894 C   0  0  0  0  0  0  0  0  0  0  0  0
   -1.2222   -5.6123    8.7670 C   0  0  0  0  0  0  0  0  0  0  0  0
   -0.6110   -4.7380    9.6303 C   0  0  0  0  0  0  0  0  0  0  0  0
   -0.1886   -5.1258   10.8963 C   0  0  0  0  0  0  0  0  0  0  0  0
   -0.3806   -6.4258   11.3178 C   0  0  0  0  0  0  0  0  0  0  0  0
   -0.9952   -7.3101   10.4540 C   0  0  0  0  0  0  0  0  0  0  0  0
   -1.4151   -6.9111    9.1861 C   0  0  0  0  0  0  0  0  0  0  0  0
   -2.0222   -7.5464    8.1671 N   0  0  0  0  0  0  0  0  0  0  0  0
    0.2594   -0.0700    6.8875 O   0  0  0  0  0  0  0  0  0  0  0  0
  1  2  1  0
  2  3  1  0
  2  4  1  0
  4  5  1  0
  5  6  1  0
  6  7  1  0
  7  8  1  0
  8  9  1  0
  9 10  2  0
 10 11  1  0
 11 12  2  0
 12 13  1  0
 13 14  2  0
 14 15  1  0
 15 16  2  0
 16 17  1  0
 17 18  2  0
 18 19  1  0
 19 20  2  0
 20 21  1  0
  6 22  1  0
 14  9  1  0
 21 13  1  0
 20 15  1  0
M  END
$$$$
