CT1002406421
     RDKit          3D

 20 20  0  0  0  0  0  0  0  0999 V2000
  -12.7687   -4.4753   41.4996 C   0  0  1  0  0  0  0  0  0  0  0  0
  -11.7320   -5.5969   41.4395 C   0  0  1  0  0  0  0  0  0  0  0  0
  -12.8393   -4.1040   42.8421 O   0  0  0  0  0  0  0  0  0  0  0  0
  -12.2748   -3.4269   40.7552 O   0  0  0  0  0  0  0  0  0  0  0  0
  -12.3319   -6.7978   42.1076 C   0  0  2  0  0  0  0  0  0  0  0  0
  -11.3390   -5.8483   40.1260 O   0  0  0  0  0  0  0  0  0  0  0  0
  -13.3643   -5.0849   43.6446 C   0  0  1  0  0  0  0  0  0  0  0  0
  -12.7707   -2.2423   41.2203 C   0  0  0  0  0  0  0  0  0  0  0  0
  -13.4740   -6.4286   43.0032 C   0  0  1  0  0  0  0  0  0  0  0  0
  -11.3328   -7.4196   42.8552 O   0  0  0  0  0  0  0  0  0  0  0  0
  -12.6536   -5.2042   44.9865 C   0  0  0  0  0  0  0  0  0  0  0  0
  -11.9130   -1.0448   40.8736 C   0  0  0  0  0  0  0  0  0  0  0  0
  -14.7052   -6.5046   42.3484 O   0  0  0  0  0  0  0  0  0  0  0  0
  -13.5939   -4.9168   45.9823 O   0  0  0  0  0  0  0  0  0  0  0  0
  -12.7417    0.1690   41.2198 C   0  0  0  0  0  0  0  0  0  0  0  0
  -12.7094    1.2088   40.0712 C   0  0  0  0  0  0  0  0  0  0  0  0
  -11.8316    2.3440   40.4250 C   0  0  0  0  0  0  0  0  0  0  0  0
  -12.5563    3.4673   41.0728 C   0  0  0  0  0  0  0  0  0  0  0  0
  -11.8802    4.7738   41.0442 C   0  0  0  0  0  0  0  0  0  0  0  0
  -11.5740    5.4572   42.3200 C   0  0  0  0  0  0  0  0  0  0  0  0
  1  2  1  0
  1  3  1  0
  1  4  1  6
  2  5  1  0
  2  6  1  6
  7  3  1  6
  8  4  1  6
  5  9  1  0
  5 10  1  1
  7  9  1  0
  7 11  1  0
 12  8  1  6
  9 13  1  6
 11 14  1  1
 15 12  1  6
 16 15  1  6
 17 16  1  6
 18 17  1  6
 18 19  1  0
 19 20  1  1
M  END
$$$$
