CT1002406421
     RDKit          3D

 20 20  0  0  0  0  0  0  0  0999 V2000
   -2.8853   13.2135   28.1190 C   0  0  1  0  0  0  0  0  0  0  0  0
   -3.7216   14.0603   29.0782 C   0  0  1  0  0  0  0  0  0  0  0  0
   -3.4031   13.4670   26.8491 O   0  0  0  0  0  0  0  0  0  0  0  0
   -1.5908   13.6782   28.1919 O   0  0  0  0  0  0  0  0  0  0  0  0
   -5.0935   13.4570   29.1286 C   0  0  2  0  0  0  0  0  0  0  0  0
   -3.1196   14.1411   30.3327 O   0  0  0  0  0  0  0  0  0  0  0  0
   -4.6797   12.9926   26.6841 C   0  0  1  0  0  0  0  0  0  0  0  0
   -0.7907   12.9854   27.3285 C   0  0  0  0  0  0  0  0  0  0  0  0
   -5.3635   12.5797   27.9454 C   0  0  1  0  0  0  0  0  0  0  0  0
   -6.0212   14.4973   29.1615 O   0  0  0  0  0  0  0  0  0  0  0  0
   -5.5724   13.9399   25.8931 C   0  0  0  0  0  0  0  0  0  0  0  0
    0.5436   13.6499   27.0679 C   0  0  0  0  0  0  0  0  0  0  0  0
   -5.0521   11.2417   28.1973 O   0  0  0  0  0  0  0  0  0  0  0  0
   -5.4816   13.5699   24.5465 O   0  0  0  0  0  0  0  0  0  0  0  0
    1.5907   12.6111   27.3902 C   0  0  0  0  0  0  0  0  0  0  0  0
    2.8674   13.2713   27.9697 C   0  0  0  0  0  0  0  0  0  0  0  0
    3.0525   12.8868   29.3847 C   0  0  0  0  0  0  0  0  0  0  0  0
    4.3063   12.1282   29.6281 C   0  0  0  0  0  0  0  0  0  0  0  0
    5.5590   12.8836   29.4698 C   0  0  0  0  0  0  0  0  0  0  0  0
    6.4183   13.1139   30.6518 C   0  0  0  0  0  0  0  0  0  0  0  0
  1  2  1  0
  1  3  1  0
  1  4  1  6
  2  5  1  0
  2  6  1  1
  7  3  1  1
  8  4  1  6
  5  9  1  0
  5 10  1  6
  7  9  1  0
  7 11  1  0
 12  8  1  6
  9 13  1  1
 11 14  1  1
 15 12  1  6
 16 15  1  6
 17 16  1  6
 18 17  1  6
 18 19  1  0
 19 20  1  1
M  END
$$$$
