CT1002406421
     RDKit          3D

 20 20  0  0  0  0  0  0  0  0999 V2000
   -3.6147   13.2631   27.9849 C   0  0  1  0  0  0  0  0  0  0  0  0
   -4.4704   14.3558   28.6254 C   0  0  1  0  0  0  0  0  0  0  0  0
   -3.1709   13.7976   26.7756 O   0  0  0  0  0  0  0  0  0  0  0  0
   -2.5393   13.0500   28.8187 O   0  0  0  0  0  0  0  0  0  0  0  0
   -5.7239   14.4780   27.8115 C   0  0  2  0  0  0  0  0  0  0  0  0
   -4.7219   14.0754   29.9674 O   0  0  0  0  0  0  0  0  0  0  0  0
   -4.1837   13.9986   25.8723 C   0  0  1  0  0  0  0  0  0  0  0  0
   -1.3734   13.3438   28.1706 C   0  0  0  0  0  0  0  0  0  0  0  0
   -5.5605   13.8976   26.4407 C   0  0  1  0  0  0  0  0  0  0  0  0
   -6.0432   15.8315   27.7119 O   0  0  0  0  0  0  0  0  0  0  0  0
   -4.0373   15.2960   25.0881 C   0  0  0  0  0  0  0  0  0  0  0  0
   -0.7320   12.1493   27.4988 C   0  0  0  0  0  0  0  0  0  0  0  0
   -5.9649   12.5621   26.3805 O   0  0  0  0  0  0  0  0  0  0  0  0
   -2.7331   15.7606   25.2922 O   0  0  0  0  0  0  0  0  0  0  0  0
    0.0391   11.4331   28.5815 C   0  0  0  0  0  0  0  0  0  0  0  0
    1.5653   11.5236   28.3280 C   0  0  0  0  0  0  0  0  0  0  0  0
    2.2909   10.5674   29.1903 C   0  0  0  0  0  0  0  0  0  0  0  0
    3.0694   11.2250   30.2712 C   0  0  0  0  0  0  0  0  0  0  0  0
    3.9985   10.3601   31.0155 C   0  0  0  0  0  0  0  0  0  0  0  0
    4.9831   10.9765   31.9316 C   0  0  0  0  0  0  0  0  0  0  0  0
  1  2  1  0
  1  3  1  0
  1  4  1  1
  2  5  1  0
  2  6  1  1
  7  3  1  1
  8  4  1  6
  5  9  1  0
  5 10  1  6
  7  9  1  0
  7 11  1  0
 12  8  1  6
  9 13  1  1
 11 14  1  1
 15 12  1  6
 16 15  1  6
 17 16  1  6
 18 17  1  6
 18 19  1  0
 19 20  1  1
M  END
$$$$
