CT1002406421
     RDKit          3D

 20 20  0  0  0  0  0  0  0  0999 V2000
   -2.8833   13.7549   27.5890 C   0  0  1  0  0  0  0  0  0  0  0  0
   -2.7500   13.1091   26.2101 C   0  0  1  0  0  0  0  0  0  0  0  0
   -3.9564   13.1084   28.2017 O   0  0  0  0  0  0  0  0  0  0  0  0
   -1.7231   13.4803   28.2787 O   0  0  0  0  0  0  0  0  0  0  0  0
   -3.9338   13.5405   25.3970 C   0  0  2  0  0  0  0  0  0  0  0  0
   -1.5344   13.4416   25.6146 O   0  0  0  0  0  0  0  0  0  0  0  0
   -5.1590   13.3693   27.5952 C   0  0  1  0  0  0  0  0  0  0  0  0
   -1.9838   13.3634   29.6143 C   0  0  0  0  0  0  0  0  0  0  0  0
   -5.0580   14.0268   26.2586 C   0  0  1  0  0  0  0  0  0  0  0  0
   -4.3605   12.4481   24.6431 O   0  0  0  0  0  0  0  0  0  0  0  0
   -6.0627   12.1464   27.5077 C   0  0  0  0  0  0  0  0  0  0  0  0
   -0.7657   13.5533   30.4918 C   0  0  0  0  0  0  0  0  0  0  0  0
   -5.0173   15.4096   26.4502 O   0  0  0  0  0  0  0  0  0  0  0  0
   -6.0793   11.5500   28.7736 O   0  0  0  0  0  0  0  0  0  0  0  0
    0.1941   12.4530   30.1072 C   0  0  0  0  0  0  0  0  0  0  0  0
   -0.0914   11.1608   30.9135 C   0  0  0  0  0  0  0  0  0  0  0  0
    0.6982   11.1449   32.1628 C   0  0  0  0  0  0  0  0  0  0  0  0
    2.0952   10.6787   31.9689 C   0  0  0  0  0  0  0  0  0  0  0  0
    3.0578   11.0734   33.0094 C   0  0  0  0  0  0  0  0  0  0  0  0
    2.6042   11.9318   34.1256 C   0  0  0  0  0  0  0  0  0  0  0  0
  1  2  1  0
  1  3  1  0
  1  4  1  1
  2  5  1  0
  2  6  1  6
  7  3  1  6
  8  4  1  6
  5  9  1  0
  5 10  1  1
  7  9  1  0
  7 11  1  0
 12  8  1  6
  9 13  1  1
 11 14  1  1
 15 12  1  6
 16 15  1  6
 17 16  1  6
 18 17  1  6
 18 19  1  0
 19 20  1  1
M  END
$$$$
