CT1002406421
     RDKit          3D

 20 20  0  0  0  0  0  0  0  0999 V2000
   -9.8733   -3.2225   44.9978 C   0  0  1  0  0  0  0  0  0  0  0  0
   -8.5477   -3.5212   44.2977 C   0  0  1  0  0  0  0  0  0  0  0  0
  -10.6282   -4.3893   44.8808 O   0  0  0  0  0  0  0  0  0  0  0  0
   -9.5867   -2.9882   46.3245 O   0  0  0  0  0  0  0  0  0  0  0  0
   -8.8287   -3.6148   42.8277 C   0  0  2  0  0  0  0  0  0  0  0  0
   -7.5886   -2.5576   44.6050 O   0  0  0  0  0  0  0  0  0  0  0  0
  -10.9912   -4.6678   43.5875 C   0  0  1  0  0  0  0  0  0  0  0  0
  -10.6659   -2.4315   46.9498 C   0  0  0  0  0  0  0  0  0  0  0  0
  -10.2785   -3.8657   42.5493 C   0  0  1  0  0  0  0  0  0  0  0  0
   -8.0646   -4.6589   42.3082 O   0  0  0  0  0  0  0  0  0  0  0  0
  -10.9082   -6.1504   43.2488 C   0  0  0  0  0  0  0  0  0  0  0  0
  -10.2985   -1.4758   48.0640 C   0  0  0  0  0  0  0  0  0  0  0  0
  -10.9898   -2.6817   42.3427 O   0  0  0  0  0  0  0  0  0  0  0  0
  -11.0006   -6.8580   44.4527 O   0  0  0  0  0  0  0  0  0  0  0  0
  -10.1291   -2.3284   49.2985 C   0  0  0  0  0  0  0  0  0  0  0  0
  -11.1293   -1.9077   50.4049 C   0  0  0  0  0  0  0  0  0  0  0  0
  -10.5196   -0.9001   51.2980 C   0  0  0  0  0  0  0  0  0  0  0  0
  -10.7059   -1.2038   52.7401 C   0  0  0  0  0  0  0  0  0  0  0  0
  -11.6752   -0.3607   53.4575 C   0  0  0  0  0  0  0  0  0  0  0  0
  -11.3036    0.2107   54.7705 C   0  0  0  0  0  0  0  0  0  0  0  0
  1  2  1  0
  1  3  1  0
  1  4  1  1
  2  5  1  0
  2  6  1  6
  7  3  1  1
  8  4  1  6
  5  9  1  0
  5 10  1  1
  7  9  1  0
  7 11  1  0
 12  8  1  6
  9 13  1  1
 11 14  1  1
 15 12  1  6
 16 15  1  6
 17 16  1  6
 18 17  1  6
 18 19  1  0
 19 20  1  1
M  END
$$$$
