
     RDKit          3D

 14 14  0  0  0  0  0  0  0  0999 V2000
   -2.5849    1.9962    4.8101 C   0  0  0  0  0  0  0  0  0  0  0  0
   -3.7897    1.2272    4.6402 N   0  0  0  0  0  4  0  0  0  0  0  0
   -3.7403   -0.0128    5.4312 C   0  0  0  0  0  0  0  0  0  0  0  0
   -2.7375   -0.9296    4.8752 C   0  0  0  0  0  0  0  0  0  0  0  0
   -1.9238   -1.6917    4.4140 C   0  0  0  0  0  0  0  0  0  0  0  0
   -0.9108   -2.6122    3.8462 C   0  0  0  0  0  0  0  0  0  0  0  0
   -0.5761   -3.5191    4.8421 O   0  0  0  0  0  0  0  0  0  0  0  0
    0.1046   -4.7155    4.6140 C   0  0  0  0  0  0  0  0  0  0  0  0
   -0.2275   -5.4654    3.6178 N   0  0  0  0  0  0  0  0  0  0  0  0
    0.5519   -6.5885    3.5615 O   0  0  0  0  0  0  0  0  0  0  0  0
    1.7034   -6.3862    4.3894 C   0  0  0  0  0  0  0  0  0  0  0  0
    1.2260   -5.3140    5.3778 C   0  0  0  0  0  0  0  0  0  0  0  0
   -3.8742    0.8842    3.2178 C   0  0  0  0  0  0  0  0  0  0  0  0
   -4.9100    2.0179    5.0713 C   0  0  0  0  0  0  0  0  0  0  0  0
  1  2  1  0
  2  3  1  0
  3  4  1  0
  4  5  3  0
  5  6  1  0
  6  7  1  0
  7  8  1  0
  8  9  2  0
  9 10  1  0
 10 11  1  0
 11 12  1  0
  2 13  1  0
  2 14  1  0
 12  8  1  0
M  CHG  1   2   1
M  END
$$$$
