
     RDKit          3D

 14 14  0  0  0  0  0  0  0  0999 V2000
   -2.5693    1.5530    5.7915 C   0  0  0  0  0  0  0  0  0  0  0  0
   -3.5729    1.0615    4.8845 N   0  0  0  0  0  4  0  0  0  0  0  0
   -3.8624   -0.3591    5.1370 C   0  0  0  0  0  0  0  0  0  0  0  0
   -2.6213   -1.1427    5.1080 C   0  0  0  0  0  0  0  0  0  0  0  0
   -1.5967   -1.7798    5.0957 C   0  0  0  0  0  0  0  0  0  0  0  0
   -0.3394   -2.5639    5.1012 C   0  0  0  0  0  0  0  0  0  0  0  0
   -0.3556   -3.3737    3.9742 O   0  0  0  0  0  0  0  0  0  0  0  0
    0.3962   -4.5414    3.8391 C   0  0  0  0  0  0  0  0  0  0  0  0
    1.2203   -4.8878    4.7696 N   0  0  0  0  0  0  0  0  0  0  0  0
    1.8607   -6.0553    4.4550 O   0  0  0  0  0  0  0  0  0  0  0  0
    1.1479   -6.6930    3.3884 C   0  0  0  0  0  0  0  0  0  0  0  0
    0.4091   -5.5222    2.7269 C   0  0  0  0  0  0  0  0  0  0  0  0
   -3.0263    1.2052    3.5322 C   0  0  0  0  0  0  0  0  0  0  0  0
   -4.7759    1.8275    5.0636 C   0  0  0  0  0  0  0  0  0  0  0  0
  1  2  1  0
  2  3  1  0
  3  4  1  0
  4  5  3  0
  5  6  1  0
  6  7  1  0
  7  8  1  0
  8  9  2  0
  9 10  1  0
 10 11  1  0
 11 12  1  0
  2 13  1  0
  2 14  1  0
 12  8  1  0
M  CHG  1   2   1
M  END
$$$$
