
     RDKit          3D

 14 14  0  0  0  0  0  0  0  0999 V2000
   -3.8674    1.7158    5.2940 C   0  0  0  0  0  0  0  0  0  0  0  0
   -3.1693    0.4580    5.3417 N   0  0  0  0  0  4  0  0  0  0  0  0
   -1.9116    0.5806    6.0960 C   0  0  0  0  0  0  0  0  0  0  0  0
   -1.1239   -0.6522    5.9726 C   0  0  0  0  0  0  0  0  0  0  0  0
   -0.4677   -1.6586    5.8625 C   0  0  0  0  0  0  0  0  0  0  0  0
    0.3471   -2.8869    5.7101 C   0  0  0  0  0  0  0  0  0  0  0  0
   -0.1337   -3.5630    4.5974 O   0  0  0  0  0  0  0  0  0  0  0  0
    0.4405   -4.7244    4.0793 C   0  0  0  0  0  0  0  0  0  0  0  0
    1.4528   -5.2619    4.6720 N   0  0  0  0  0  0  0  0  0  0  0  0
    1.8711   -6.3874    4.0160 O   0  0  0  0  0  0  0  0  0  0  0  0
    0.8367   -6.8007    3.1152 C   0  0  0  0  0  0  0  0  0  0  0  0
    0.0563   -5.5014    2.8761 C   0  0  0  0  0  0  0  0  0  0  0  0
   -2.8623    0.0930    3.9559 C   0  0  0  0  0  0  0  0  0  0  0  0
   -4.0106   -0.5160    5.9817 C   0  0  0  0  0  0  0  0  0  0  0  0
  1  2  1  0
  2  3  1  0
  3  4  1  0
  4  5  3  0
  5  6  1  0
  6  7  1  0
  7  8  1  0
  8  9  2  0
  9 10  1  0
 10 11  1  0
 11 12  1  0
  2 13  1  0
  2 14  1  0
 12  8  1  0
M  CHG  1   2   1
M  END
$$$$
