
     RDKit          3D

 14 14  0  0  0  0  0  0  0  0999 V2000
   -1.7910    0.5540    5.0559 C   0  0  0  0  0  0  0  0  0  0  0  0
   -2.7003   -0.0499    4.1177 N   0  0  0  0  0  4  0  0  0  0  0  0
   -1.9757   -0.6072    2.9644 C   0  0  0  0  0  0  0  0  0  0  0  0
   -1.0068   -1.6149    3.4129 C   0  0  0  0  0  0  0  0  0  0  0  0
   -0.2035   -2.4417    3.7691 C   0  0  0  0  0  0  0  0  0  0  0  0
    0.7675   -3.4690    4.2135 C   0  0  0  0  0  0  0  0  0  0  0  0
    0.0586   -4.6458    4.4110 O   0  0  0  0  0  0  0  0  0  0  0  0
    0.3107   -5.5465    5.4465 C   0  0  0  0  0  0  0  0  0  0  0  0
    1.5055   -5.9973    5.6310 N   0  0  0  0  0  0  0  0  0  0  0  0
    1.5504   -6.8638    6.6889 O   0  0  0  0  0  0  0  0  0  0  0  0
    0.3547   -6.7022    7.4613 C   0  0  0  0  0  0  0  0  0  0  0  0
   -0.6302   -6.1139    6.4424 C   0  0  0  0  0  0  0  0  0  0  0  0
   -3.5943    1.0141    3.6522 C   0  0  0  0  0  0  0  0  0  0  0  0
   -3.4175   -1.1052    4.7796 C   0  0  0  0  0  0  0  0  0  0  0  0
  1  2  1  0
  2  3  1  0
  3  4  1  0
  4  5  3  0
  5  6  1  0
  6  7  1  0
  7  8  1  0
  8  9  2  0
  9 10  1  0
 10 11  1  0
 11 12  1  0
  2 13  1  0
  2 14  1  0
 12  8  1  0
M  CHG  1   2   1
M  END
$$$$
