
     RDKit          3D

 14 14  0  0  0  0  0  0  0  0999 V2000
   -4.1018   -0.7444    5.3989 C   0  0  0  0  0  0  0  0  0  0  0  0
   -3.3049    0.3180    5.9539 N   0  0  0  0  0  4  0  0  0  0  0  0
   -2.5008   -0.1629    7.0887 C   0  0  0  0  0  0  0  0  0  0  0  0
   -1.6119   -1.2484    6.6567 C   0  0  0  0  0  0  0  0  0  0  0  0
   -0.8757   -2.1410    6.3146 C   0  0  0  0  0  0  0  0  0  0  0  0
    0.0177   -3.2505    5.9062 C   0  0  0  0  0  0  0  0  0  0  0  0
   -0.4247   -3.6999    4.6698 O   0  0  0  0  0  0  0  0  0  0  0  0
    0.1263   -4.7865    3.9895 C   0  0  0  0  0  0  0  0  0  0  0  0
    1.1034   -5.4461    4.5139 N   0  0  0  0  0  0  0  0  0  0  0  0
    1.5038   -6.4700    3.6994 O   0  0  0  0  0  0  0  0  0  0  0  0
    0.4827   -6.7001    2.7213 C   0  0  0  0  0  0  0  0  0  0  0  0
   -0.2484   -5.3520    2.6709 C   0  0  0  0  0  0  0  0  0  0  0  0
   -4.2394    1.3419    6.4296 C   0  0  0  0  0  0  0  0  0  0  0  0
   -2.4272    0.8219    4.9332 C   0  0  0  0  0  0  0  0  0  0  0  0
  1  2  1  0
  2  3  1  0
  3  4  1  0
  4  5  3  0
  5  6  1  0
  6  7  1  0
  7  8  1  0
  8  9  2  0
  9 10  1  0
 10 11  1  0
 11 12  1  0
  2 13  1  0
  2 14  1  0
 12  8  1  0
M  CHG  1   2   1
M  END
$$$$
