
     RDKit          3D

 14 14  0  0  0  0  0  0  0  0999 V2000
   -4.0956    1.9430    5.7226 C   0  0  0  0  0  0  0  0  0  0  0  0
   -3.1371    0.9101    5.4293 N   0  0  0  0  0  4  0  0  0  0  0  0
   -2.5693    0.3502    6.6661 C   0  0  0  0  0  0  0  0  0  0  0  0
   -1.5575   -0.6642    6.3459 C   0  0  0  0  0  0  0  0  0  0  0  0
   -0.7342   -1.5026    6.0722 C   0  0  0  0  0  0  0  0  0  0  0  0
    0.2819   -2.5218    5.7191 C   0  0  0  0  0  0  0  0  0  0  0  0
   -0.0425   -3.0057    4.4595 O   0  0  0  0  0  0  0  0  0  0  0  0
    0.3469   -4.2560    3.9776 C   0  0  0  0  0  0  0  0  0  0  0  0
    1.1435   -4.9947    4.6738 N   0  0  0  0  0  0  0  0  0  0  0  0
    1.4069   -6.1766    4.0369 O   0  0  0  0  0  0  0  0  0  0  0  0
    0.4364   -6.3613    2.9994 C   0  0  0  0  0  0  0  0  0  0  0  0
   -0.0268   -4.9276    2.7094 C   0  0  0  0  0  0  0  0  0  0  0  0
   -2.0648    1.5380    4.6522 C   0  0  0  0  0  0  0  0  0  0  0  0
   -3.7930   -0.1369    4.6946 C   0  0  0  0  0  0  0  0  0  0  0  0
  1  2  1  0
  2  3  1  0
  3  4  1  0
  4  5  3  0
  5  6  1  0
  6  7  1  0
  7  8  1  0
  8  9  2  0
  9 10  1  0
 10 11  1  0
 11 12  1  0
  2 13  1  0
  2 14  1  0
 12  8  1  0
M  CHG  1   2   1
M  END
$$$$
