
     RDKit          3D

 14 14  0  0  0  0  0  0  0  0999 V2000
   -2.3485    1.3901    4.6105 C   0  0  0  0  0  0  0  0  0  0  0  0
   -3.3978    0.6956    5.3092 N   0  0  0  0  0  4  0  0  0  0  0  0
   -2.9045    0.1295    6.5749 C   0  0  0  0  0  0  0  0  0  0  0  0
   -1.8790   -0.8872    6.3102 C   0  0  0  0  0  0  0  0  0  0  0  0
   -1.0346   -1.7247    6.1067 C   0  0  0  0  0  0  0  0  0  0  0  0
   -0.0043   -2.7550    5.8373 C   0  0  0  0  0  0  0  0  0  0  0  0
   -0.5521   -3.6577    4.9365 O   0  0  0  0  0  0  0  0  0  0  0  0
    0.1750   -4.6604    4.2940 C   0  0  0  0  0  0  0  0  0  0  0  0
    1.2707   -5.0972    4.8172 N   0  0  0  0  0  0  0  0  0  0  0  0
    1.8348   -6.0739    4.0427 O   0  0  0  0  0  0  0  0  0  0  0  0
    0.8508   -6.5440    3.1137 C   0  0  0  0  0  0  0  0  0  0  0  0
   -0.1199   -5.3593    3.0198 C   0  0  0  0  0  0  0  0  0  0  0  0
   -3.8356   -0.3964    4.4352 C   0  0  0  0  0  0  0  0  0  0  0  0
   -4.4613    1.6213    5.5889 C   0  0  0  0  0  0  0  0  0  0  0  0
  1  2  1  0
  2  3  1  0
  3  4  1  0
  4  5  3  0
  5  6  1  0
  6  7  1  0
  7  8  1  0
  8  9  2  0
  9 10  1  0
 10 11  1  0
 11 12  1  0
  2 13  1  0
  2 14  1  0
 12  8  1  0
M  CHG  1   2   1
M  END
$$$$
