
     RDKit          3D

 14 14  0  0  0  0  0  0  0  0999 V2000
   -3.0969    1.3010    4.0355 C   0  0  0  0  0  0  0  0  0  0  0  0
   -2.5819   -0.0339    4.1919 N   0  0  0  0  0  4  0  0  0  0  0  0
   -2.1714   -0.5966    2.8955 C   0  0  0  0  0  0  0  0  0  0  0  0
   -1.4161   -1.8390    3.0982 C   0  0  0  0  0  0  0  0  0  0  0  0
   -0.7902   -2.8591    3.2515 C   0  0  0  0  0  0  0  0  0  0  0  0
   -0.0111   -4.1030    3.4553 C   0  0  0  0  0  0  0  0  0  0  0  0
    0.5839   -4.0144    4.7061 O   0  0  0  0  0  0  0  0  0  0  0  0
    0.7393   -5.0938    5.5766 C   0  0  0  0  0  0  0  0  0  0  0  0
    1.6235   -5.0421    6.5149 N   0  0  0  0  0  0  0  0  0  0  0  0
    1.6239   -6.1901    7.2593 O   0  0  0  0  0  0  0  0  0  0  0  0
    0.4128   -6.9071    6.9918 C   0  0  0  0  0  0  0  0  0  0  0  0
    0.0074   -6.3832    5.6078 C   0  0  0  0  0  0  0  0  0  0  0  0
   -3.6719   -0.8448    4.7417 C   0  0  0  0  0  0  0  0  0  0  0  0
   -1.4448    0.0070    5.0702 C   0  0  0  0  0  0  0  0  0  0  0  0
  1  2  1  0
  2  3  1  0
  3  4  1  0
  4  5  3  0
  5  6  1  0
  6  7  1  0
  7  8  1  0
  8  9  2  0
  9 10  1  0
 10 11  1  0
 11 12  1  0
  2 13  1  0
  2 14  1  0
 12  8  1  0
M  CHG  1   2   1
M  END
$$$$
