
     RDKit          3D

 14 14  0  0  0  0  0  0  0  0999 V2000
   -2.8431    0.2771    5.9218 C   0  0  0  0  0  0  0  0  0  0  0  0
   -3.2274    0.7474    4.6169 N   0  0  0  0  0  4  0  0  0  0  0  0
   -2.4380    0.0879    3.5645 C   0  0  0  0  0  0  0  0  0  0  0  0
   -1.5192   -0.8913    4.1579 C   0  0  0  0  0  0  0  0  0  0  0  0
   -0.7650   -1.7039    4.6339 C   0  0  0  0  0  0  0  0  0  0  0  0
    0.1555   -2.6960    5.2374 C   0  0  0  0  0  0  0  0  0  0  0  0
   -0.4284   -3.9455    5.0822 O   0  0  0  0  0  0  0  0  0  0  0  0
    0.2504   -5.1527    5.2519 C   0  0  0  0  0  0  0  0  0  0  0  0
    1.0118   -5.3242    6.2794 N   0  0  0  0  0  0  0  0  0  0  0  0
    1.5869   -6.5657    6.2685 O   0  0  0  0  0  0  0  0  0  0  0  0
    0.8777   -7.3882    5.3341 C   0  0  0  0  0  0  0  0  0  0  0  0
    0.2442   -6.3587    4.3890 C   0  0  0  0  0  0  0  0  0  0  0  0
   -2.9531    2.1868    4.5895 C   0  0  0  0  0  0  0  0  0  0  0  0
   -4.6209    0.4603    4.4117 C   0  0  0  0  0  0  0  0  0  0  0  0
  1  2  1  0
  2  3  1  0
  3  4  1  0
  4  5  3  0
  5  6  1  0
  6  7  1  0
  7  8  1  0
  8  9  2  0
  9 10  1  0
 10 11  1  0
 11 12  1  0
  2 13  1  0
  2 14  1  0
 12  8  1  0
M  CHG  1   2   1
M  END
$$$$
