
     RDKit          3D

 14 14  0  0  0  0  0  0  0  0999 V2000
   -3.1089    1.3137    4.1819 C   0  0  0  0  0  0  0  0  0  0  0  0
   -2.4512    0.0460    4.3611 N   0  0  0  0  0  4  0  0  0  0  0  0
   -1.1974   -0.0115    3.5928 C   0  0  0  0  0  0  0  0  0  0  0  0
   -0.5698   -1.3301    3.7441 C   0  0  0  0  0  0  0  0  0  0  0  0
   -0.0628   -2.4165    3.8793 C   0  0  0  0  0  0  0  0  0  0  0  0
    0.5509   -3.7526    4.0639 C   0  0  0  0  0  0  0  0  0  0  0  0
    0.5984   -3.9976    5.4291 O   0  0  0  0  0  0  0  0  0  0  0  0
    0.5422   -5.2705    5.9979 C   0  0  0  0  0  0  0  0  0  0  0  0
    1.5436   -6.0749    5.8759 N   0  0  0  0  0  0  0  0  0  0  0  0
    1.2992   -7.2686    6.4983 O   0  0  0  0  0  0  0  0  0  0  0  0
    0.1838   -7.1018    7.3818 C   0  0  0  0  0  0  0  0  0  0  0  0
   -0.5526   -5.9003    6.7748 C   0  0  0  0  0  0  0  0  0  0  0  0
   -3.3685   -0.9800    3.8572 C   0  0  0  0  0  0  0  0  0  0  0  0
   -2.1582   -0.1318    5.7571 C   0  0  0  0  0  0  0  0  0  0  0  0
  1  2  1  0
  2  3  1  0
  3  4  1  0
  4  5  3  0
  5  6  1  0
  6  7  1  0
  7  8  1  0
  8  9  2  0
  9 10  1  0
 10 11  1  0
 11 12  1  0
  2 13  1  0
  2 14  1  0
 12  8  1  0
M  CHG  1   2   1
M  END
$$$$
