
     RDKit          3D

 14 14  0  0  0  0  0  0  0  0999 V2000
   -4.3180    2.0299    5.3988 C   0  0  0  0  0  0  0  0  0  0  0  0
   -3.4808    1.0344    4.7826 N   0  0  0  0  0  4  0  0  0  0  0  0
   -2.9564    0.0923    5.7842 C   0  0  0  0  0  0  0  0  0  0  0  0
   -2.1404   -0.9392    5.1319 C   0  0  0  0  0  0  0  0  0  0  0  0
   -1.4679   -1.7933    4.6085 C   0  0  0  0  0  0  0  0  0  0  0  0
   -0.6509   -2.8380    3.9475 C   0  0  0  0  0  0  0  0  0  0  0  0
   -0.3259   -3.7784    4.9151 O   0  0  0  0  0  0  0  0  0  0  0  0
    0.4032   -4.9409    4.6623 C   0  0  0  0  0  0  0  0  0  0  0  0
    0.4193   -5.4454    3.4748 N   0  0  0  0  0  0  0  0  0  0  0  0
    1.1852   -6.5782    3.4279 O   0  0  0  0  0  0  0  0  0  0  0  0
    2.0039   -6.6237    4.6027 C   0  0  0  0  0  0  0  0  0  0  0  0
    1.2216   -5.7531    5.5948 C   0  0  0  0  0  0  0  0  0  0  0  0
   -2.3600    1.7491    4.1653 C   0  0  0  0  0  0  0  0  0  0  0  0
   -4.2571    0.3099    3.8138 C   0  0  0  0  0  0  0  0  0  0  0  0
  1  2  1  0
  2  3  1  0
  3  4  1  0
  4  5  3  0
  5  6  1  0
  6  7  1  0
  7  8  1  0
  8  9  2  0
  9 10  1  0
 10 11  1  0
 11 12  1  0
  2 13  1  0
  2 14  1  0
 12  8  1  0
M  CHG  1   2   1
M  END
$$$$
