
     RDKit          3D

 14 14  0  0  0  0  0  0  0  0999 V2000
   -3.4224    0.3916    3.1355 C   0  0  0  0  0  0  0  0  0  0  0  0
   -3.3618    0.4206    4.5733 N   0  0  0  0  0  4  0  0  0  0  0  0
   -3.3647   -0.9419    5.1293 C   0  0  0  0  0  0  0  0  0  0  0  0
   -2.3293   -1.7564    4.4814 C   0  0  0  0  0  0  0  0  0  0  0  0
   -1.4690   -2.4154    3.9509 C   0  0  0  0  0  0  0  0  0  0  0  0
   -0.4037   -3.2073    3.2923 C   0  0  0  0  0  0  0  0  0  0  0  0
    0.5661   -3.4676    4.2503 O   0  0  0  0  0  0  0  0  0  0  0  0
    0.7220   -4.6970    4.8917 C   0  0  0  0  0  0  0  0  0  0  0  0
    1.1816   -4.7408    6.0966 N   0  0  0  0  0  0  0  0  0  0  0  0
    1.2609   -6.0292    6.5502 O   0  0  0  0  0  0  0  0  0  0  0  0
    0.4733   -6.8636    5.6924 C   0  0  0  0  0  0  0  0  0  0  0  0
    0.4275   -6.0596    4.3863 C   0  0  0  0  0  0  0  0  0  0  0  0
   -4.5613    1.1269    5.0319 C   0  0  0  0  0  0  0  0  0  0  0  0
   -2.1552    1.0914    4.9737 C   0  0  0  0  0  0  0  0  0  0  0  0
  1  2  1  0
  2  3  1  0
  3  4  1  0
  4  5  3  0
  5  6  1  0
  6  7  1  0
  7  8  1  0
  8  9  2  0
  9 10  1  0
 10 11  1  0
 11 12  1  0
  2 13  1  0
  2 14  1  0
 12  8  1  0
M  CHG  1   2   1
M  END
$$$$
