
     RDKit          3D

 14 14  0  0  0  0  0  0  0  0999 V2000
   -2.9657    0.0788    3.4151 C   0  0  0  0  0  0  0  0  0  0  0  0
   -3.1431    0.5963    4.7464 N   0  0  0  0  0  4  0  0  0  0  0  0
   -1.8455    0.8107    5.4066 C   0  0  0  0  0  0  0  0  0  0  0  0
   -1.1206   -0.4604    5.5254 C   0  0  0  0  0  0  0  0  0  0  0  0
   -0.5238   -1.5057    5.6088 C   0  0  0  0  0  0  0  0  0  0  0  0
    0.2258   -2.7793    5.7180 C   0  0  0  0  0  0  0  0  0  0  0  0
    0.5276   -3.1900    4.4271 O   0  0  0  0  0  0  0  0  0  0  0  0
    0.3925   -4.5021    3.9720 C   0  0  0  0  0  0  0  0  0  0  0  0
    1.1967   -5.4171    4.3974 N   0  0  0  0  0  0  0  0  0  0  0  0
    0.9055   -6.6317    3.8387 O   0  0  0  0  0  0  0  0  0  0  0  0
   -0.4043   -6.5658    3.2621 C   0  0  0  0  0  0  0  0  0  0  0  0
   -0.5898   -5.0631    3.0132 C   0  0  0  0  0  0  0  0  0  0  0  0
   -3.8992   -0.4125    5.4938 C   0  0  0  0  0  0  0  0  0  0  0  0
   -3.8456    1.8479    4.6683 C   0  0  0  0  0  0  0  0  0  0  0  0
  1  2  1  0
  2  3  1  0
  3  4  1  0
  4  5  3  0
  5  6  1  0
  6  7  1  0
  7  8  1  0
  8  9  2  0
  9 10  1  0
 10 11  1  0
 11 12  1  0
  2 13  1  0
  2 14  1  0
 12  8  1  0
M  CHG  1   2   1
M  END
$$$$
