
     RDKit          3D

 14 14  0  0  0  0  0  0  0  0999 V2000
   -4.1613    1.3752    6.4415 C   0  0  0  0  0  0  0  0  0  0  0  0
   -3.3940    0.3692    5.7554 N   0  0  0  0  0  4  0  0  0  0  0  0
   -2.9420   -0.6766    6.6869 C   0  0  0  0  0  0  0  0  0  0  0  0
   -1.6633   -1.2395    6.2359 C   0  0  0  0  0  0  0  0  0  0  0  0
   -0.6161   -1.7147    5.8708 C   0  0  0  0  0  0  0  0  0  0  0  0
    0.6711   -2.2841    5.4075 C   0  0  0  0  0  0  0  0  0  0  0  0
    0.5953   -3.6598    5.5744 O   0  0  0  0  0  0  0  0  0  0  0  0
    0.5561   -4.5745    4.5214 C   0  0  0  0  0  0  0  0  0  0  0  0
    0.5729   -5.8410    4.7679 N   0  0  0  0  0  0  0  0  0  0  0  0
    0.5285   -6.5715    3.6118 O   0  0  0  0  0  0  0  0  0  0  0  0
    0.1098   -5.7115    2.5452 C   0  0  0  0  0  0  0  0  0  0  0  0
    0.4939   -4.3188    3.0621 C   0  0  0  0  0  0  0  0  0  0  0  0
   -2.2227    1.0447    5.1898 C   0  0  0  0  0  0  0  0  0  0  0  0
   -4.2153   -0.2277    4.7379 C   0  0  0  0  0  0  0  0  0  0  0  0
  1  2  1  0
  2  3  1  0
  3  4  1  0
  4  5  3  0
  5  6  1  0
  6  7  1  0
  7  8  1  0
  8  9  2  0
  9 10  1  0
 10 11  1  0
 11 12  1  0
  2 13  1  0
  2 14  1  0
 12  8  1  0
M  CHG  1   2   1
M  END
$$$$
