
     RDKit          3D

 14 14  0  0  0  0  0  0  0  0999 V2000
   -4.1151    1.4297    6.0140 C   0  0  0  0  0  0  0  0  0  0  0  0
   -3.1646    0.4112    5.6519 N   0  0  0  0  0  4  0  0  0  0  0  0
   -2.7884   -0.3995    6.8210 C   0  0  0  0  0  0  0  0  0  0  0  0
   -1.7167   -1.3373    6.4643 C   0  0  0  0  0  0  0  0  0  0  0  0
   -0.8423   -2.1104    6.1587 C   0  0  0  0  0  0  0  0  0  0  0  0
    0.2412   -3.0561    5.8013 C   0  0  0  0  0  0  0  0  0  0  0  0
   -0.0463   -3.5510    4.5370 O   0  0  0  0  0  0  0  0  0  0  0  0
    0.5404   -4.6938    3.9922 C   0  0  0  0  0  0  0  0  0  0  0  0
    1.4726   -5.3092    4.6381 N   0  0  0  0  0  0  0  0  0  0  0  0
    1.9190   -6.4006    3.9441 O   0  0  0  0  0  0  0  0  0  0  0  0
    0.9661   -6.7104    2.9202 C   0  0  0  0  0  0  0  0  0  0  0  0
    0.2530   -5.3692    2.7037 C   0  0  0  0  0  0  0  0  0  0  0  0
   -1.9756    1.1040    5.1475 C   0  0  0  0  0  0  0  0  0  0  0  0
   -3.7545   -0.4413    4.6562 C   0  0  0  0  0  0  0  0  0  0  0  0
  1  2  1  0
  2  3  1  0
  3  4  1  0
  4  5  3  0
  5  6  1  0
  6  7  1  0
  7  8  1  0
  8  9  2  0
  9 10  1  0
 10 11  1  0
 11 12  1  0
  2 13  1  0
  2 14  1  0
 12  8  1  0
M  CHG  1   2   1
M  END
$$$$
