
     RDKit          3D

 14 14  0  0  0  0  0  0  0  0999 V2000
   -3.7358    1.7514    4.3286 C   0  0  0  0  0  0  0  0  0  0  0  0
   -2.9970    0.5995    4.7747 N   0  0  0  0  0  4  0  0  0  0  0  0
   -1.5557    0.8894    4.8398 C   0  0  0  0  0  0  0  0  0  0  0  0
   -0.8050   -0.3358    5.1408 C   0  0  0  0  0  0  0  0  0  0  0  0
   -0.1899   -1.3470    5.3748 C   0  0  0  0  0  0  0  0  0  0  0  0
    0.5799   -2.5779    5.6719 C   0  0  0  0  0  0  0  0  0  0  0  0
    0.5840   -3.3482    4.5174 O   0  0  0  0  0  0  0  0  0  0  0  0
    0.4815   -4.7397    4.5051 C   0  0  0  0  0  0  0  0  0  0  0  0
    1.2190   -5.4326    3.7046 N   0  0  0  0  0  0  0  0  0  0  0  0
    0.9744   -6.7720    3.8398 O   0  0  0  0  0  0  0  0  0  0  0  0
    0.2623   -6.9839    5.0647 C   0  0  0  0  0  0  0  0  0  0  0  0
   -0.3950   -5.6202    5.3149 C   0  0  0  0  0  0  0  0  0  0  0  0
   -3.2280   -0.4583    3.7869 C   0  0  0  0  0  0  0  0  0  0  0  0
   -3.4632    0.2267    6.0823 C   0  0  0  0  0  0  0  0  0  0  0  0
  1  2  1  0
  2  3  1  0
  3  4  1  0
  4  5  3  0
  5  6  1  0
  6  7  1  0
  7  8  1  0
  8  9  2  0
  9 10  1  0
 10 11  1  0
 11 12  1  0
  2 13  1  0
  2 14  1  0
 12  8  1  0
M  CHG  1   2   1
M  END
$$$$
