
     RDKit          3D

 14 14  0  0  0  0  0  0  0  0999 V2000
   -4.2414   -0.4735    5.0651 C   0  0  0  0  0  0  0  0  0  0  0  0
   -3.5854    0.7742    4.7743 N   0  0  0  0  0  4  0  0  0  0  0  0
   -2.2185    0.7915    5.3191 C   0  0  0  0  0  0  0  0  0  0  0  0
   -1.4320   -0.3104    4.7511 C   0  0  0  0  0  0  0  0  0  0  0  0
   -0.7970   -1.2245    4.2853 C   0  0  0  0  0  0  0  0  0  0  0  0
   -0.0192   -2.3387    3.6944 C   0  0  0  0  0  0  0  0  0  0  0  0
   -0.0502   -3.3879    4.6024 O   0  0  0  0  0  0  0  0  0  0  0  0
    0.3245   -4.6971    4.2982 C   0  0  0  0  0  0  0  0  0  0  0  0
    0.7048   -4.9965    3.1021 N   0  0  0  0  0  0  0  0  0  0  0  0
    1.0296   -6.3218    3.0024 O   0  0  0  0  0  0  0  0  0  0  0  0
    1.1943   -6.8512    4.3234 C   0  0  0  0  0  0  0  0  0  0  0  0
    0.3622   -5.8883    5.1806 C   0  0  0  0  0  0  0  0  0  0  0  0
   -4.3726    1.8260    5.4239 C   0  0  0  0  0  0  0  0  0  0  0  0
   -3.5276    0.9472    3.3485 C   0  0  0  0  0  0  0  0  0  0  0  0
  1  2  1  0
  2  3  1  0
  3  4  1  0
  4  5  3  0
  5  6  1  0
  6  7  1  0
  7  8  1  0
  8  9  2  0
  9 10  1  0
 10 11  1  0
 11 12  1  0
  2 13  1  0
  2 14  1  0
 12  8  1  0
M  CHG  1   2   1
M  END
$$$$
