
     RDKit          3D

 14 14  0  0  0  0  0  0  0  0999 V2000
   -2.3185    1.7766    5.1107 C   0  0  0  0  0  0  0  0  0  0  0  0
   -3.4474    0.9254    4.8413 N   0  0  0  0  0  4  0  0  0  0  0  0
   -3.4180   -0.2754    5.6915 C   0  0  0  0  0  0  0  0  0  0  0  0
   -2.1293   -0.9646    5.5515 C   0  0  0  0  0  0  0  0  0  0  0  0
   -1.0704   -1.5340    5.4504 C   0  0  0  0  0  0  0  0  0  0  0  0
    0.2331   -2.2311    5.3465 C   0  0  0  0  0  0  0  0  0  0  0  0
    0.0530   -3.3141    4.4974 O   0  0  0  0  0  0  0  0  0  0  0  0
    0.3082   -4.6387    4.8542 C   0  0  0  0  0  0  0  0  0  0  0  0
    1.0278   -4.8983    5.8933 N   0  0  0  0  0  0  0  0  0  0  0  0
    1.1639   -6.2473    6.0774 O   0  0  0  0  0  0  0  0  0  0  0  0
    0.1738   -6.9171    5.2877 C   0  0  0  0  0  0  0  0  0  0  0  0
   -0.1399   -5.8883    4.1935 C   0  0  0  0  0  0  0  0  0  0  0  0
   -3.3441    0.5196    3.4367 C   0  0  0  0  0  0  0  0  0  0  0  0
   -4.6553    1.6594    5.1026 C   0  0  0  0  0  0  0  0  0  0  0  0
  1  2  1  0
  2  3  1  0
  3  4  1  0
  4  5  3  0
  5  6  1  0
  6  7  1  0
  7  8  1  0
  8  9  2  0
  9 10  1  0
 10 11  1  0
 11 12  1  0
  2 13  1  0
  2 14  1  0
 12  8  1  0
M  CHG  1   2   1
M  END
$$$$
