
     RDKit          3D

 14 14  0  0  0  0  0  0  0  0999 V2000
   -2.7704    1.2664    3.3672 C   0  0  0  0  0  0  0  0  0  0  0  0
   -3.3831    0.9802    4.6377 N   0  0  0  0  0  4  0  0  0  0  0  0
   -2.3976    0.4445    5.5904 C   0  0  0  0  0  0  0  0  0  0  0  0
   -1.7709   -0.7659    5.0451 C   0  0  0  0  0  0  0  0  0  0  0  0
   -1.2679   -1.7638    4.5901 C   0  0  0  0  0  0  0  0  0  0  0  0
   -0.6667   -2.9919    4.0191 C   0  0  0  0  0  0  0  0  0  0  0  0
   -0.4124   -3.8544    5.0763 O   0  0  0  0  0  0  0  0  0  0  0  0
    0.3154   -5.0394    4.9615 C   0  0  0  0  0  0  0  0  0  0  0  0
    0.6869   -5.4566    3.7984 N   0  0  0  0  0  0  0  0  0  0  0  0
    1.3857   -6.6291    3.8925 O   0  0  0  0  0  0  0  0  0  0  0  0
    1.7891   -6.8112    5.2550 C   0  0  0  0  0  0  0  0  0  0  0  0
    0.7665   -5.9670    6.0269 C   0  0  0  0  0  0  0  0  0  0  0  0
   -4.4109   -0.0351    4.3912 C   0  0  0  0  0  0  0  0  0  0  0  0
   -3.9410    2.1941    5.1682 C   0  0  0  0  0  0  0  0  0  0  0  0
  1  2  1  0
  2  3  1  0
  3  4  1  0
  4  5  3  0
  5  6  1  0
  6  7  1  0
  7  8  1  0
  8  9  2  0
  9 10  1  0
 10 11  1  0
 11 12  1  0
  2 13  1  0
  2 14  1  0
 12  8  1  0
M  CHG  1   2   1
M  END
$$$$
