
     RDKit          3D

 14 14  0  0  0  0  0  0  0  0999 V2000
   -2.5881    0.6902    6.2334 C   0  0  0  0  0  0  0  0  0  0  0  0
   -3.0906    0.7685    4.8870 N   0  0  0  0  0  4  0  0  0  0  0  0
   -2.0288    0.4800    3.9096 C   0  0  0  0  0  0  0  0  0  0  0  0
   -1.1349   -0.5642    4.4252 C   0  0  0  0  0  0  0  0  0  0  0  0
   -0.4004   -1.4287    4.8362 C   0  0  0  0  0  0  0  0  0  0  0  0
    0.5177   -2.4775    5.3391 C   0  0  0  0  0  0  0  0  0  0  0  0
   -0.1952   -3.6680    5.3673 O   0  0  0  0  0  0  0  0  0  0  0  0
    0.2919   -4.8830    4.8842 C   0  0  0  0  0  0  0  0  0  0  0  0
    1.3090   -5.4397    5.4503 N   0  0  0  0  0  0  0  0  0  0  0  0
    1.6346   -6.6182    4.8361 O   0  0  0  0  0  0  0  0  0  0  0  0
    0.5320   -7.0248    4.0167 C   0  0  0  0  0  0  0  0  0  0  0  0
   -0.1970   -5.7016    3.7484 C   0  0  0  0  0  0  0  0  0  0  0  0
   -3.5603    2.1429    4.6912 C   0  0  0  0  0  0  0  0  0  0  0  0
   -4.1498   -0.1905    4.7302 C   0  0  0  0  0  0  0  0  0  0  0  0
  1  2  1  0
  2  3  1  0
  3  4  1  0
  4  5  3  0
  5  6  1  0
  6  7  1  0
  7  8  1  0
  8  9  2  0
  9 10  1  0
 10 11  1  0
 11 12  1  0
  2 13  1  0
  2 14  1  0
 12  8  1  0
M  CHG  1   2   1
M  END
$$$$
