
     RDKit          3D

 14 14  0  0  0  0  0  0  0  0999 V2000
   -3.6071    0.4770    3.6016 C   0  0  0  0  0  0  0  0  0  0  0  0
   -3.7949    0.7219    5.0074 N   0  0  0  0  0  4  0  0  0  0  0  0
   -3.9421   -0.5411    5.7483 C   0  0  0  0  0  0  0  0  0  0  0  0
   -2.7175   -1.3425    5.6330 C   0  0  0  0  0  0  0  0  0  0  0  0
   -1.7146   -2.0082    5.5501 C   0  0  0  0  0  0  0  0  0  0  0  0
   -0.4844   -2.8251    5.4276 C   0  0  0  0  0  0  0  0  0  0  0  0
   -0.5238   -3.4429    4.1855 O   0  0  0  0  0  0  0  0  0  0  0  0
    0.1934   -4.5952    3.8618 C   0  0  0  0  0  0  0  0  0  0  0  0
    0.9939   -5.1196    4.7273 N   0  0  0  0  0  0  0  0  0  0  0  0
    1.6022   -6.2380    4.2259 O   0  0  0  0  0  0  0  0  0  0  0  0
    0.8843   -6.6640    3.0616 C   0  0  0  0  0  0  0  0  0  0  0  0
    0.1908   -5.3752    2.6006 C   0  0  0  0  0  0  0  0  0  0  0  0
   -5.0297    1.5003    5.1388 C   0  0  0  0  0  0  0  0  0  0  0  0
   -2.6526    1.4344    5.5112 C   0  0  0  0  0  0  0  0  0  0  0  0
  1  2  1  0
  2  3  1  0
  3  4  1  0
  4  5  3  0
  5  6  1  0
  6  7  1  0
  7  8  1  0
  8  9  2  0
  9 10  1  0
 10 11  1  0
 11 12  1  0
  2 13  1  0
  2 14  1  0
 12  8  1  0
M  CHG  1   2   1
M  END
$$$$
