
     RDKit          3D

 14 14  0  0  0  0  0  0  0  0999 V2000
   -3.8184   -0.4238    4.7710 C   0  0  0  0  0  0  0  0  0  0  0  0
   -3.1081    0.7093    5.3032 N   0  0  0  0  0  4  0  0  0  0  0  0
   -2.3607    0.3415    6.5163 C   0  0  0  0  0  0  0  0  0  0  0  0
   -1.3814   -0.7084    6.2100 C   0  0  0  0  0  0  0  0  0  0  0  0
   -0.5807   -1.5785    5.9697 C   0  0  0  0  0  0  0  0  0  0  0  0
    0.4102   -2.6451    5.6937 C   0  0  0  0  0  0  0  0  0  0  0  0
   -0.2906   -3.7416    5.2112 O   0  0  0  0  0  0  0  0  0  0  0  0
    0.2293   -4.6642    4.3026 C   0  0  0  0  0  0  0  0  0  0  0  0
    1.4402   -5.0886    4.4377 N   0  0  0  0  0  0  0  0  0  0  0  0
    1.7645   -5.9831    3.4545 O   0  0  0  0  0  0  0  0  0  0  0  0
    0.5561   -6.4290    2.8274 C   0  0  0  0  0  0  0  0  0  0  0  0
   -0.4216   -5.2840    3.1230 C   0  0  0  0  0  0  0  0  0  0  0  0
   -4.1167    1.7149    5.6492 C   0  0  0  0  0  0  0  0  0  0  0  0
   -2.1877    1.1892    4.3089 C   0  0  0  0  0  0  0  0  0  0  0  0
  1  2  1  0
  2  3  1  0
  3  4  1  0
  4  5  3  0
  5  6  1  0
  6  7  1  0
  7  8  1  0
  8  9  2  0
  9 10  1  0
 10 11  1  0
 11 12  1  0
  2 13  1  0
  2 14  1  0
 12  8  1  0
M  CHG  1   2   1
M  END
$$$$
