
     RDKit          3D

 14 14  0  0  0  0  0  0  0  0999 V2000
   -4.0479    1.5207    4.6819 C   0  0  0  0  0  0  0  0  0  0  0  0
   -3.0515    0.4826    4.6494 N   0  0  0  0  0  4  0  0  0  0  0  0
   -1.8310    0.9434    3.9683 C   0  0  0  0  0  0  0  0  0  0  0  0
   -0.7783   -0.0747    4.0698 C   0  0  0  0  0  0  0  0  0  0  0  0
    0.0776   -0.9205    4.1588 C   0  0  0  0  0  0  0  0  0  0  0  0
    1.1143   -1.9731    4.2737 C   0  0  0  0  0  0  0  0  0  0  0  0
    0.5649   -3.0115    5.0127 O   0  0  0  0  0  0  0  0  0  0  0  0
    0.5118   -4.3369    4.5799 C   0  0  0  0  0  0  0  0  0  0  0  0
    1.3568   -5.1980    5.0376 N   0  0  0  0  0  0  0  0  0  0  0  0
    1.1445   -6.4366    4.4964 O   0  0  0  0  0  0  0  0  0  0  0  0
   -0.1551   -6.4540    3.8938 C   0  0  0  0  0  0  0  0  0  0  0  0
   -0.4185   -4.9687    3.6132 C   0  0  0  0  0  0  0  0  0  0  0  0
   -3.6287   -0.6328    3.8939 C   0  0  0  0  0  0  0  0  0  0  0  0
   -2.7265    0.1085    5.9987 C   0  0  0  0  0  0  0  0  0  0  0  0
  1  2  1  0
  2  3  1  0
  3  4  1  0
  4  5  3  0
  5  6  1  0
  6  7  1  0
  7  8  1  0
  8  9  2  0
  9 10  1  0
 10 11  1  0
 11 12  1  0
  2 13  1  0
  2 14  1  0
 12  8  1  0
M  CHG  1   2   1
M  END
$$$$
