
     RDKit          3D

 14 14  0  0  0  0  0  0  0  0999 V2000
   -3.9176   -0.5864    4.3545 C   0  0  0  0  0  0  0  0  0  0  0  0
   -3.3359    0.7006    4.6317 N   0  0  0  0  0  4  0  0  0  0  0  0
   -1.9662    0.7862    4.1004 C   0  0  0  0  0  0  0  0  0  0  0  0
   -1.1855   -0.3843    4.5193 C   0  0  0  0  0  0  0  0  0  0  0  0
   -0.5449   -1.3517    4.8505 C   0  0  0  0  0  0  0  0  0  0  0  0
    0.2252   -2.5518    5.2537 C   0  0  0  0  0  0  0  0  0  0  0  0
   -0.1751   -3.5930    4.4281 O   0  0  0  0  0  0  0  0  0  0  0  0
    0.2352   -4.9175    4.5847 C   0  0  0  0  0  0  0  0  0  0  0  0
    0.9767   -5.4723    3.6863 N   0  0  0  0  0  0  0  0  0  0  0  0
    1.2722   -6.7665    4.0176 O   0  0  0  0  0  0  0  0  0  0  0  0
    0.9767   -6.9603    5.4060 C   0  0  0  0  0  0  0  0  0  0  0  0
   -0.0582   -5.8633    5.6886 C   0  0  0  0  0  0  0  0  0  0  0  0
   -3.2927    0.8387    6.0901 C   0  0  0  0  0  0  0  0  0  0  0  0
   -4.1449    1.7178    4.0177 C   0  0  0  0  0  0  0  0  0  0  0  0
  1  2  1  0
  2  3  1  0
  3  4  1  0
  4  5  3  0
  5  6  1  0
  6  7  1  0
  7  8  1  0
  8  9  2  0
  9 10  1  0
 10 11  1  0
 11 12  1  0
  2 13  1  0
  2 14  1  0
 12  8  1  0
M  CHG  1   2   1
M  END
$$$$
