
     RDKit          3D

 14 14  0  0  0  0  0  0  0  0999 V2000
   -3.4314    0.8761    6.3028 C   0  0  0  0  0  0  0  0  0  0  0  0
   -3.7562    1.1443    4.9265 N   0  0  0  0  0  4  0  0  0  0  0  0
   -3.8701   -0.1054    4.1578 C   0  0  0  0  0  0  0  0  0  0  0  0
   -2.6393   -0.8951    4.2881 C   0  0  0  0  0  0  0  0  0  0  0  0
   -1.6352   -1.5559    4.3927 C   0  0  0  0  0  0  0  0  0  0  0  0
   -0.4091   -2.3802    4.5064 C   0  0  0  0  0  0  0  0  0  0  0  0
   -0.8000   -3.7098    4.4327 O   0  0  0  0  0  0  0  0  0  0  0  0
    0.0780   -4.7725    4.2167 C   0  0  0  0  0  0  0  0  0  0  0  0
    1.1993   -4.8208    4.8533 N   0  0  0  0  0  0  0  0  0  0  0  0
    1.9180   -5.9326    4.5078 O   0  0  0  0  0  0  0  0  0  0  0  0
    1.0429   -6.8529    3.8445 C   0  0  0  0  0  0  0  0  0  0  0  0
   -0.0703   -5.9398    3.3141 C   0  0  0  0  0  0  0  0  0  0  0  0
   -2.6549    1.9428    4.3811 C   0  0  0  0  0  0  0  0  0  0  0  0
   -5.0090    1.8470    4.8736 C   0  0  0  0  0  0  0  0  0  0  0  0
  1  2  1  0
  2  3  1  0
  3  4  1  0
  4  5  3  0
  5  6  1  0
  6  7  1  0
  7  8  1  0
  8  9  2  0
  9 10  1  0
 10 11  1  0
 11 12  1  0
  2 13  1  0
  2 14  1  0
 12  8  1  0
M  CHG  1   2   1
M  END
$$$$
