
     RDKit          3D

 14 14  0  0  0  0  0  0  0  0999 V2000
   -3.0305    1.5327    4.0546 C   0  0  0  0  0  0  0  0  0  0  0  0
   -2.5086    0.2040    4.2381 N   0  0  0  0  0  4  0  0  0  0  0  0
   -1.4496   -0.0871    3.2586 C   0  0  0  0  0  0  0  0  0  0  0  0
   -1.0259   -1.4882    3.3710 C   0  0  0  0  0  0  0  0  0  0  0  0
   -0.6844   -2.6427    3.4513 C   0  0  0  0  0  0  0  0  0  0  0  0
   -0.2794   -4.0636    3.5645 C   0  0  0  0  0  0  0  0  0  0  0  0
    0.7153   -4.1313    4.5301 O   0  0  0  0  0  0  0  0  0  0  0  0
    0.7493   -5.0799    5.5528 C   0  0  0  0  0  0  0  0  0  0  0  0
    1.1421   -6.2831    5.3020 N   0  0  0  0  0  0  0  0  0  0  0  0
    1.1054   -7.0610    6.4270 O   0  0  0  0  0  0  0  0  0  0  0  0
    1.0003   -6.2042    7.5703 C   0  0  0  0  0  0  0  0  0  0  0  0
    0.3842   -4.9280    6.9820 C   0  0  0  0  0  0  0  0  0  0  0  0
   -3.6252   -0.7210    4.0244 C   0  0  0  0  0  0  0  0  0  0  0  0
   -1.9667    0.0971    5.5651 C   0  0  0  0  0  0  0  0  0  0  0  0
  1  2  1  0
  2  3  1  0
  3  4  1  0
  4  5  3  0
  5  6  1  0
  6  7  1  0
  7  8  1  0
  8  9  2  0
  9 10  1  0
 10 11  1  0
 11 12  1  0
  2 13  1  0
  2 14  1  0
 12  8  1  0
M  CHG  1   2   1
M  END
$$$$
