
     RDKit          3D

 14 14  0  0  0  0  0  0  0  0999 V2000
   -4.2855   -0.2235    3.9333 C   0  0  0  0  0  0  0  0  0  0  0  0
   -3.1864    0.6341    4.2912 N   0  0  0  0  0  4  0  0  0  0  0  0
   -2.0442    0.4343    3.3850 C   0  0  0  0  0  0  0  0  0  0  0  0
   -1.1633   -0.6193    3.9039 C   0  0  0  0  0  0  0  0  0  0  0  0
   -0.4500   -1.4945    4.3293 C   0  0  0  0  0  0  0  0  0  0  0  0
    0.4106   -2.5830    4.8493 C   0  0  0  0  0  0  0  0  0  0  0  0
   -0.3173   -3.7611    4.7580 O   0  0  0  0  0  0  0  0  0  0  0  0
    0.0988   -4.9811    5.2921 C   0  0  0  0  0  0  0  0  0  0  0  0
    1.3571   -5.2187    5.4511 N   0  0  0  0  0  0  0  0  0  0  0  0
    1.5632   -6.4614    5.9850 O   0  0  0  0  0  0  0  0  0  0  0  0
    0.3251   -6.9350    6.5284 C   0  0  0  0  0  0  0  0  0  0  0  0
   -0.7195   -6.1338    5.7403 C   0  0  0  0  0  0  0  0  0  0  0  0
   -2.7879    0.2635    5.6520 C   0  0  0  0  0  0  0  0  0  0  0  0
   -3.6195    2.0023    4.2103 C   0  0  0  0  0  0  0  0  0  0  0  0
  1  2  1  0
  2  3  1  0
  3  4  1  0
  4  5  3  0
  5  6  1  0
  6  7  1  0
  7  8  1  0
  8  9  2  0
  9 10  1  0
 10 11  1  0
 11 12  1  0
  2 13  1  0
  2 14  1  0
 12  8  1  0
M  CHG  1   2   1
M  END
$$$$
