
     RDKit          3D

 14 14  0  0  0  0  0  0  0  0999 V2000
   -2.0988    0.6410    4.6740 C   0  0  0  0  0  0  0  0  0  0  0  0
   -3.1051    0.0780    5.5354 N   0  0  0  0  0  4  0  0  0  0  0  0
   -2.5264   -0.3341    6.8241 C   0  0  0  0  0  0  0  0  0  0  0  0
   -1.4588   -1.3187    6.6091 C   0  0  0  0  0  0  0  0  0  0  0  0
   -0.5893   -2.1339    6.4223 C   0  0  0  0  0  0  0  0  0  0  0  0
    0.4673   -3.1438    6.1778 C   0  0  0  0  0  0  0  0  0  0  0  0
    0.5656   -3.3106    4.8035 O   0  0  0  0  0  0  0  0  0  0  0  0
    0.6145   -4.5518    4.1678 C   0  0  0  0  0  0  0  0  0  0  0  0
    1.1774   -5.5538    4.7543 N   0  0  0  0  0  0  0  0  0  0  0  0
    1.1248   -6.6774    3.9753 O   0  0  0  0  0  0  0  0  0  0  0  0
    0.1529   -6.4713    2.9431 C   0  0  0  0  0  0  0  0  0  0  0  0
    0.0912   -4.9419    2.8362 C   0  0  0  0  0  0  0  0  0  0  0  0
   -3.6348   -1.1037    4.8491 C   0  0  0  0  0  0  0  0  0  0  0  0
   -4.1222    1.0665    5.7691 C   0  0  0  0  0  0  0  0  0  0  0  0
  1  2  1  0
  2  3  1  0
  3  4  1  0
  4  5  3  0
  5  6  1  0
  6  7  1  0
  7  8  1  0
  8  9  2  0
  9 10  1  0
 10 11  1  0
 11 12  1  0
  2 13  1  0
  2 14  1  0
 12  8  1  0
M  CHG  1   2   1
M  END
$$$$
