
     RDKit          3D

 40 43  0  0  0  0  0  0  0  0999 V2000
   -5.2311    0.0880    7.0998 C   0  0  0  0  0  0  0  0  0  0  0  0
   -4.3609    1.3515    7.1073 C   0  0  0  0  0  0  0  0  0  0  0  0
   -2.9537    0.9613    6.8264 C   0  0  0  0  0  0  0  0  0  0  0  0
   -2.5377   -0.3497    6.9571 C   0  0  0  0  0  0  0  0  0  0  0  0
   -1.2366   -0.7307    6.7001 C   0  0  0  0  0  0  0  0  0  0  0  0
   -0.3193    0.2187    6.3008 C   0  0  0  0  0  0  0  0  0  0  0  0
   -0.6874    1.5283    6.1580 C   0  0  0  0  0  0  0  0  0  0  0  0
   -1.9931    1.8709    6.4231 C   0  0  0  0  0  0  0  0  0  0  0  0
    0.3072    2.5566    5.7241 C   0  0  0  0  0  0  0  0  0  0  0  0
    1.5890    2.1777    6.0712 F   0  0  0  0  0  0  0  0  0  0  0  0
    0.2741    2.6320    4.3391 F   0  0  0  0  0  0  0  0  0  0  0  0
   -0.0160    3.7981    6.2093 F   0  0  0  0  0  0  0  0  0  0  0  0
   -0.8061   -2.1259    6.8432 C   0  0  0  0  0  0  0  0  0  0  0  0
   -0.7704   -2.5110    8.1765 F   0  0  0  0  0  0  0  0  0  0  0  0
    0.4296   -2.3646    6.2747 F   0  0  0  0  0  0  0  0  0  0  0  0
   -1.7462   -2.9510    6.2231 F   0  0  0  0  0  0  0  0  0  0  0  0
   -4.5313    1.9487    8.3242 O   0  0  0  0  0  0  0  0  0  0  0  0
   -4.4430    3.3368    8.3278 C   0  0  0  0  0  0  0  0  0  0  0  0
   -3.8419    3.8080    9.6258 C   0  0  0  0  0  0  0  0  0  0  0  0
   -4.8412    4.0102   10.5971 N   0  0  0  0  0  0  0  0  0  0  0  0
   -6.1368    3.5184   10.3111 C   0  0  0  0  0  0  0  0  0  0  0  0
   -6.6299    3.8343    8.9259 C   0  0  0  0  0  0  0  0  0  0  0  0
   -5.6243    3.9567    7.9982 O   0  0  0  0  0  0  0  0  0  0  0  0
   -4.4692    4.1787   11.9367 C   0  0  0  0  0  0  0  0  0  0  0  0
   -3.9193    2.8800   12.4557 C   0  0  0  0  0  0  0  0  0  0  0  0
   -2.8895    2.1729   11.9072 N   0  0  0  0  0  0  0  0  0  0  0  0
   -2.6894    1.0927   12.6317 N   0  0  0  0  0  0  0  0  0  0  0  0
   -3.5463    1.0710   13.6256 N   0  0  0  0  0  0  0  0  0  0  0  0
   -4.3211    2.1622   13.5454 C   0  0  0  0  0  0  0  0  0  0  0  0
   -5.4066    2.5218   14.4637 C   0  0  0  0  0  0  0  0  0  0  0  0
   -5.4679    1.6702   15.6318 N   0  0  0  0  0  0  0  0  0  0  0  0
   -5.4492    0.2854   15.1941 C   0  0  0  0  0  0  0  0  0  0  0  0
   -4.3988    1.8988   16.5507 C   0  0  0  0  0  0  0  0  0  0  0  0
   -2.8814    4.9197    9.4603 C   0  0  0  0  0  0  0  0  0  0  0  0
   -3.2632    6.2572    9.4132 C   0  0  0  0  0  0  0  0  0  0  0  0
   -2.3350    7.2671    9.2534 C   0  0  0  0  0  0  0  0  0  0  0  0
   -0.9909    6.9909    9.1341 C   0  0  0  0  0  0  0  0  0  0  0  0
   -0.5979    5.6712    9.1791 C   0  0  0  0  0  0  0  0  0  0  0  0
   -1.5355    4.6646    9.3396 C   0  0  0  0  0  0  0  0  0  0  0  0
   -0.0684    7.9838    8.9776 F   0  0  0  0  0  0  0  0  0  0  0  0
  1  2  1  0
  2  3  1  0
  3  4  2  0
  4  5  1  0
  5  6  2  0
  6  7  1  0
  7  8  2  0
  7  9  1  0
  9 10  1  0
  9 11  1  0
  9 12  1  0
  5 13  1  0
 13 14  1  0
 13 15  1  0
 13 16  1  0
  2 17  1  0
 17 18  1  0
 18 19  1  0
 19 20  1  0
 20 21  1  0
 21 22  1  0
 22 23  1  0
 20 24  1  0
 24 25  1  0
 25 26  2  0
 26 27  1  0
 27 28  1  0
 28 29  2  0
 29 30  1  0
 30 31  1  0
 31 32  1  0
 31 33  1  0
 19 34  1  0
 34 35  2  0
 35 36  1  0
 36 37  2  0
 37 38  1  0
 38 39  2  0
 37 40  1  0
  8  3  1  0
 23 18  1  0
 29 25  1  0
 39 34  1  0
M  END
$$$$
