
     RDKit          3D

 40 43  0  0  0  0  0  0  0  0999 V2000
    1.6889    1.9314    9.2656 C   0  0  0  0  0  0  0  0  0  0  0  0
    0.3956    1.3048    8.7285 C   0  0  0  0  0  0  0  0  0  0  0  0
    0.4051    1.3932    7.2442 C   0  0  0  0  0  0  0  0  0  0  0  0
   -0.5487    2.1290    6.5677 C   0  0  0  0  0  0  0  0  0  0  0  0
   -0.5556    2.2233    5.1910 C   0  0  0  0  0  0  0  0  0  0  0  0
    0.4144    1.5671    4.4625 C   0  0  0  0  0  0  0  0  0  0  0  0
    1.3783    0.8274    5.0907 C   0  0  0  0  0  0  0  0  0  0  0  0
    1.3533    0.7563    6.4644 C   0  0  0  0  0  0  0  0  0  0  0  0
    2.4300    0.1172    4.3005 C   0  0  0  0  0  0  0  0  0  0  0  0
    2.5806    0.6926    3.0542 F   0  0  0  0  0  0  0  0  0  0  0  0
    3.6414    0.2688    4.9595 F   0  0  0  0  0  0  0  0  0  0  0  0
    2.1718   -1.2276    4.2230 F   0  0  0  0  0  0  0  0  0  0  0  0
   -1.5741    3.0071    4.4835 C   0  0  0  0  0  0  0  0  0  0  0  0
   -2.7813    2.3248    4.4148 F   0  0  0  0  0  0  0  0  0  0  0  0
   -1.1853    3.3592    3.2060 F   0  0  0  0  0  0  0  0  0  0  0  0
   -1.8252    4.1739    5.2078 F   0  0  0  0  0  0  0  0  0  0  0  0
   -0.6451    1.9717    9.3104 O   0  0  0  0  0  0  0  0  0  0  0  0
   -1.8180    1.2389    9.4588 C   0  0  0  0  0  0  0  0  0  0  0  0
   -2.8463    2.0615   10.1898 C   0  0  0  0  0  0  0  0  0  0  0  0
   -2.7292    1.8887   11.5824 N   0  0  0  0  0  0  0  0  0  0  0  0
   -1.5743    1.2265   12.0619 C   0  0  0  0  0  0  0  0  0  0  0  0
   -1.2190   -0.0267   11.3101 C   0  0  0  0  0  0  0  0  0  0  0  0
   -1.6137   -0.0100    9.9945 O   0  0  0  0  0  0  0  0  0  0  0  0
   -3.4017    2.7683   12.4399 C   0  0  0  0  0  0  0  0  0  0  0  0
   -2.7946    4.1365   12.3067 C   0  0  0  0  0  0  0  0  0  0  0  0
   -1.4605    4.4155   12.2446 N   0  0  0  0  0  0  0  0  0  0  0  0
   -1.3090    5.7176   12.1302 N   0  0  0  0  0  0  0  0  0  0  0  0
   -2.4886    6.2929   12.1157 N   0  0  0  0  0  0  0  0  0  0  0  0
   -3.4285    5.3428   12.2232 C   0  0  0  0  0  0  0  0  0  0  0  0
   -4.8788    5.5594   12.2467 C   0  0  0  0  0  0  0  0  0  0  0  0
   -5.2441    6.9594   12.2404 N   0  0  0  0  0  0  0  0  0  0  0  0
   -4.0959    7.7335   11.8021 C   0  0  0  0  0  0  0  0  0  0  0  0
   -6.3647    7.2442   11.4020 C   0  0  0  0  0  0  0  0  0  0  0  0
   -4.2125    1.9167    9.6434 C   0  0  0  0  0  0  0  0  0  0  0  0
   -4.6984    2.6858    8.5903 C   0  0  0  0  0  0  0  0  0  0  0  0
   -5.9831    2.5226    8.1107 C   0  0  0  0  0  0  0  0  0  0  0  0
   -6.8372    1.5898    8.6563 C   0  0  0  0  0  0  0  0  0  0  0  0
   -6.3698    0.8208    9.6994 C   0  0  0  0  0  0  0  0  0  0  0  0
   -5.0800    0.9911   10.1743 C   0  0  0  0  0  0  0  0  0  0  0  0
   -8.1069    1.4222    8.1863 F   0  0  0  0  0  0  0  0  0  0  0  0
  1  2  1  0
  2  3  1  0
  3  4  2  0
  4  5  1  0
  5  6  2  0
  6  7  1  0
  7  8  2  0
  7  9  1  0
  9 10  1  0
  9 11  1  0
  9 12  1  0
  5 13  1  0
 13 14  1  0
 13 15  1  0
 13 16  1  0
  2 17  1  0
 17 18  1  0
 18 19  1  0
 19 20  1  0
 20 21  1  0
 21 22  1  0
 22 23  1  0
 20 24  1  0
 24 25  1  0
 25 26  2  0
 26 27  1  0
 27 28  1  0
 28 29  2  0
 29 30  1  0
 30 31  1  0
 31 32  1  0
 31 33  1  0
 19 34  1  0
 34 35  2  0
 35 36  1  0
 36 37  2  0
 37 38  1  0
 38 39  2  0
 37 40  1  0
  8  3  1  0
 23 18  1  0
 29 25  1  0
 39 34  1  0
M  END
$$$$
