
     RDKit          3D

 40 43  0  0  0  0  0  0  0  0999 V2000
   -5.7266    1.7363    7.1537 C   0  0  0  0  0  0  0  0  0  0  0  0
   -4.6031    2.7767    7.2495 C   0  0  0  0  0  0  0  0  0  0  0  0
   -3.3065    2.1032    6.9725 C   0  0  0  0  0  0  0  0  0  0  0  0
   -2.6737    2.2488    5.7530 C   0  0  0  0  0  0  0  0  0  0  0  0
   -1.4701    1.6323    5.4780 C   0  0  0  0  0  0  0  0  0  0  0  0
   -0.8756    0.8469    6.4433 C   0  0  0  0  0  0  0  0  0  0  0  0
   -1.4664    0.6752    7.6649 C   0  0  0  0  0  0  0  0  0  0  0  0
   -2.6661    1.3052    7.9030 C   0  0  0  0  0  0  0  0  0  0  0  0
   -0.8208   -0.1754    8.7111 C   0  0  0  0  0  0  0  0  0  0  0  0
   -1.4738   -1.3863    8.8316 F   0  0  0  0  0  0  0  0  0  0  0  0
    0.4734   -0.4587    8.2992 F   0  0  0  0  0  0  0  0  0  0  0  0
   -0.7333    0.4880    9.9084 F   0  0  0  0  0  0  0  0  0  0  0  0
   -0.8079    1.7935    4.1789 C   0  0  0  0  0  0  0  0  0  0  0  0
   -0.8146    0.6082    3.4562 F   0  0  0  0  0  0  0  0  0  0  0  0
    0.4937    2.2403    4.2946 F   0  0  0  0  0  0  0  0  0  0  0  0
   -1.5281    2.7180    3.4201 F   0  0  0  0  0  0  0  0  0  0  0  0
   -4.6765    3.3329    8.4952 O   0  0  0  0  0  0  0  0  0  0  0  0
   -3.7481    4.3343    8.7597 C   0  0  0  0  0  0  0  0  0  0  0  0
   -3.5341    4.4542   10.2456 C   0  0  0  0  0  0  0  0  0  0  0  0
   -4.4559    5.3542   10.8141 N   0  0  0  0  0  0  0  0  0  0  0  0
   -5.5390    5.7746   10.0062 C   0  0  0  0  0  0  0  0  0  0  0  0
   -5.1533    6.1756    8.6089 C   0  0  0  0  0  0  0  0  0  0  0  0
   -4.0403    5.5237    8.1365 O   0  0  0  0  0  0  0  0  0  0  0  0
   -4.6034    5.3944   12.2061 C   0  0  0  0  0  0  0  0  0  0  0  0
   -5.1377    4.0711   12.6769 C   0  0  0  0  0  0  0  0  0  0  0  0
   -6.3009    3.4880   12.2666 N   0  0  0  0  0  0  0  0  0  0  0  0
   -6.4380    2.3389   12.8930 N   0  0  0  0  0  0  0  0  0  0  0  0
   -5.4127    2.1538   13.6912 N   0  0  0  0  0  0  0  0  0  0  0  0
   -4.5902    3.2069   13.5811 C   0  0  0  0  0  0  0  0  0  0  0  0
   -3.3276    3.3976   14.3025 C   0  0  0  0  0  0  0  0  0  0  0  0
   -3.2745    2.6751   15.5550 N   0  0  0  0  0  0  0  0  0  0  0  0
   -2.0834    1.8440   15.5576 C   0  0  0  0  0  0  0  0  0  0  0  0
   -3.2661    3.5315   16.6979 C   0  0  0  0  0  0  0  0  0  0  0  0
   -2.1204    4.6696   10.6211 C   0  0  0  0  0  0  0  0  0  0  0  0
   -1.1397    3.6904   10.4941 C   0  0  0  0  0  0  0  0  0  0  0  0
    0.1702    3.9298   10.8599 C   0  0  0  0  0  0  0  0  0  0  0  0
    0.5600    5.1501   11.3660 C   0  0  0  0  0  0  0  0  0  0  0  0
   -0.4001    6.1295   11.4971 C   0  0  0  0  0  0  0  0  0  0  0  0
   -1.7116    5.8808   11.1280 C   0  0  0  0  0  0  0  0  0  0  0  0
    1.8526    5.3940   11.7277 F   0  0  0  0  0  0  0  0  0  0  0  0
  1  2  1  0
  2  3  1  0
  3  4  2  0
  4  5  1  0
  5  6  2  0
  6  7  1  0
  7  8  2  0
  7  9  1  0
  9 10  1  0
  9 11  1  0
  9 12  1  0
  5 13  1  0
 13 14  1  0
 13 15  1  0
 13 16  1  0
  2 17  1  0
 17 18  1  0
 18 19  1  0
 19 20  1  0
 20 21  1  0
 21 22  1  0
 22 23  1  0
 20 24  1  0
 24 25  1  0
 25 26  2  0
 26 27  1  0
 27 28  1  0
 28 29  2  0
 29 30  1  0
 30 31  1  0
 31 32  1  0
 31 33  1  0
 19 34  1  0
 34 35  2  0
 35 36  1  0
 36 37  2  0
 37 38  1  0
 38 39  2  0
 37 40  1  0
  8  3  1  0
 23 18  1  0
 29 25  1  0
 39 34  1  0
M  END
$$$$
