
     RDKit          3D

 40 43  0  0  0  0  0  0  0  0999 V2000
   -5.3684    1.6080    6.4309 C   0  0  0  0  0  0  0  0  0  0  0  0
   -4.4286    2.7027    6.9524 C   0  0  0  0  0  0  0  0  0  0  0  0
   -3.0257    2.3010    6.6665 C   0  0  0  0  0  0  0  0  0  0  0  0
   -2.4344    2.5913    5.4520 C   0  0  0  0  0  0  0  0  0  0  0  0
   -1.1337    2.2273    5.1689 C   0  0  0  0  0  0  0  0  0  0  0  0
   -0.3966    1.5541    6.1206 C   0  0  0  0  0  0  0  0  0  0  0  0
   -0.9417    1.2463    7.3367 C   0  0  0  0  0  0  0  0  0  0  0  0
   -2.2411    1.6251    7.5832 C   0  0  0  0  0  0  0  0  0  0  0  0
   -0.1417    0.5176    8.3682 C   0  0  0  0  0  0  0  0  0  0  0  0
   -0.1623   -0.8434    8.1347 F   0  0  0  0  0  0  0  0  0  0  0  0
    1.1804    0.9224    8.2546 F   0  0  0  0  0  0  0  0  0  0  0  0
   -0.5587    0.8326    9.6362 F   0  0  0  0  0  0  0  0  0  0  0  0
   -0.5166    2.5403    3.8753 C   0  0  0  0  0  0  0  0  0  0  0  0
   -1.4718    2.6694    2.8762 F   0  0  0  0  0  0  0  0  0  0  0  0
    0.4146    1.5979    3.4857 F   0  0  0  0  0  0  0  0  0  0  0  0
    0.1197    3.7793    3.9702 F   0  0  0  0  0  0  0  0  0  0  0  0
   -4.6935    2.8582    8.2836 O   0  0  0  0  0  0  0  0  0  0  0  0
   -4.4021    4.1123    8.8098 C   0  0  0  0  0  0  0  0  0  0  0  0
   -3.7222    3.9615   10.1452 C   0  0  0  0  0  0  0  0  0  0  0  0
   -4.6686    3.9010   11.1860 N   0  0  0  0  0  0  0  0  0  0  0  0
   -6.0260    3.7321   10.8233 C   0  0  0  0  0  0  0  0  0  0  0  0
   -6.4845    4.6210    9.7001 C   0  0  0  0  0  0  0  0  0  0  0  0
   -5.4835    4.9602    8.8228 O   0  0  0  0  0  0  0  0  0  0  0  0
   -4.2593    3.4878   12.4599 C   0  0  0  0  0  0  0  0  0  0  0  0
   -4.8485    4.4156   13.4848 C   0  0  0  0  0  0  0  0  0  0  0  0
   -4.5853    5.7494   13.5994 N   0  0  0  0  0  0  0  0  0  0  0  0
   -5.2811    6.2292   14.6080 N   0  0  0  0  0  0  0  0  0  0  0  0
   -5.9834    5.2624   15.1507 N   0  0  0  0  0  0  0  0  0  0  0  0
   -5.7384    4.1279   14.4794 C   0  0  0  0  0  0  0  0  0  0  0  0
   -6.3217    2.8123   14.7621 C   0  0  0  0  0  0  0  0  0  0  0  0
   -6.5029    2.5633   16.1758 N   0  0  0  0  0  0  0  0  0  0  0  0
   -5.3778    3.1370   16.8929 C   0  0  0  0  0  0  0  0  0  0  0  0
   -7.7237    3.0984   16.6887 C   0  0  0  0  0  0  0  0  0  0  0  0
   -2.6108    4.9148   10.3506 C   0  0  0  0  0  0  0  0  0  0  0  0
   -1.3895    4.8164    9.6905 C   0  0  0  0  0  0  0  0  0  0  0  0
   -0.3742    5.7255    9.9130 C   0  0  0  0  0  0  0  0  0  0  0  0
   -0.5294    6.7687   10.7989 C   0  0  0  0  0  0  0  0  0  0  0  0
   -1.7333    6.8790   11.4596 C   0  0  0  0  0  0  0  0  0  0  0  0
   -2.7463    5.9628   11.2306 C   0  0  0  0  0  0  0  0  0  0  0  0
    0.4689    7.6713   11.0222 F   0  0  0  0  0  0  0  0  0  0  0  0
  1  2  1  0
  2  3  1  0
  3  4  2  0
  4  5  1  0
  5  6  2  0
  6  7  1  0
  7  8  2  0
  7  9  1  0
  9 10  1  0
  9 11  1  0
  9 12  1  0
  5 13  1  0
 13 14  1  0
 13 15  1  0
 13 16  1  0
  2 17  1  0
 17 18  1  0
 18 19  1  0
 19 20  1  0
 20 21  1  0
 21 22  1  0
 22 23  1  0
 20 24  1  0
 24 25  1  0
 25 26  2  0
 26 27  1  0
 27 28  1  0
 28 29  2  0
 29 30  1  0
 30 31  1  0
 31 32  1  0
 31 33  1  0
 19 34  1  0
 34 35  2  0
 35 36  1  0
 36 37  2  0
 37 38  1  0
 38 39  2  0
 37 40  1  0
  8  3  1  0
 23 18  1  0
 29 25  1  0
 39 34  1  0
M  END
$$$$
