
     RDKit          3D

 40 43  0  0  0  0  0  0  0  0999 V2000
   -2.9814    0.5993    6.2187 C   0  0  0  0  0  0  0  0  0  0  0  0
   -2.2318    1.7732    6.8621 C   0  0  0  0  0  0  0  0  0  0  0  0
   -0.8316    1.3521    7.1327 C   0  0  0  0  0  0  0  0  0  0  0  0
   -0.0366    0.8329    6.1290 C   0  0  0  0  0  0  0  0  0  0  0  0
    1.2650    0.4375    6.3609 C   0  0  0  0  0  0  0  0  0  0  0  0
    1.7947    0.5613    7.6283 C   0  0  0  0  0  0  0  0  0  0  0  0
    1.0438    1.0705    8.6519 C   0  0  0  0  0  0  0  0  0  0  0  0
   -0.2498    1.4540    8.3832 C   0  0  0  0  0  0  0  0  0  0  0  0
    1.6189    1.2054   10.0253 C   0  0  0  0  0  0  0  0  0  0  0  0
    1.9523    2.5188   10.2916 F   0  0  0  0  0  0  0  0  0  0  0  0
    0.6394    0.8484   10.9407 F   0  0  0  0  0  0  0  0  0  0  0  0
    2.6789    0.3542   10.2073 F   0  0  0  0  0  0  0  0  0  0  0  0
    2.0995   -0.1133    5.2874 C   0  0  0  0  0  0  0  0  0  0  0  0
    2.0675   -1.5012    5.2822 F   0  0  0  0  0  0  0  0  0  0  0  0
    3.4135    0.3042    5.3645 F   0  0  0  0  0  0  0  0  0  0  0  0
    1.5763    0.2943    4.0589 F   0  0  0  0  0  0  0  0  0  0  0  0
   -2.9252    2.1245    7.9856 O   0  0  0  0  0  0  0  0  0  0  0  0
   -3.5742    3.3533    7.9291 C   0  0  0  0  0  0  0  0  0  0  0  0
   -4.0023    3.7700    9.3116 C   0  0  0  0  0  0  0  0  0  0  0  0
   -5.2825    3.2671    9.6133 N   0  0  0  0  0  0  0  0  0  0  0  0
   -5.8219    2.2926    8.7405 C   0  0  0  0  0  0  0  0  0  0  0  0
   -5.6781    2.6188    7.2794 C   0  0  0  0  0  0  0  0  0  0  0  0
   -4.5802    3.3934    6.9938 O   0  0  0  0  0  0  0  0  0  0  0  0
   -5.7393    3.3077   10.9365 C   0  0  0  0  0  0  0  0  0  0  0  0
   -4.6398    2.8345   11.8451 C   0  0  0  0  0  0  0  0  0  0  0  0
   -3.8762    1.7190   11.6609 N   0  0  0  0  0  0  0  0  0  0  0  0
   -3.0198    1.6277   12.6558 N   0  0  0  0  0  0  0  0  0  0  0  0
   -3.1969    2.6370   13.4759 N   0  0  0  0  0  0  0  0  0  0  0  0
   -4.1914    3.4019   13.0032 C   0  0  0  0  0  0  0  0  0  0  0  0
   -4.7064    4.6293   13.6191 C   0  0  0  0  0  0  0  0  0  0  0  0
   -4.1668    4.8717   14.9395 N   0  0  0  0  0  0  0  0  0  0  0  0
   -4.4195    3.7022   15.7627 C   0  0  0  0  0  0  0  0  0  0  0  0
   -2.7682    5.1608   14.9306 C   0  0  0  0  0  0  0  0  0  0  0  0
   -3.8054    5.2107    9.5795 C   0  0  0  0  0  0  0  0  0  0  0  0
   -3.1375    6.0646    8.7067 C   0  0  0  0  0  0  0  0  0  0  0  0
   -2.9709    7.4047    8.9953 C   0  0  0  0  0  0  0  0  0  0  0  0
   -3.4603    7.9517   10.1608 C   0  0  0  0  0  0  0  0  0  0  0  0
   -4.1240    7.1184   11.0345 C   0  0  0  0  0  0  0  0  0  0  0  0
   -4.2866    5.7756   10.7373 C   0  0  0  0  0  0  0  0  0  0  0  0
   -3.3007    9.2751   10.4514 F   0  0  0  0  0  0  0  0  0  0  0  0
  1  2  1  0
  2  3  1  0
  3  4  2  0
  4  5  1  0
  5  6  2  0
  6  7  1  0
  7  8  2  0
  7  9  1  0
  9 10  1  0
  9 11  1  0
  9 12  1  0
  5 13  1  0
 13 14  1  0
 13 15  1  0
 13 16  1  0
  2 17  1  0
 17 18  1  0
 18 19  1  0
 19 20  1  0
 20 21  1  0
 21 22  1  0
 22 23  1  0
 20 24  1  0
 24 25  1  0
 25 26  2  0
 26 27  1  0
 27 28  1  0
 28 29  2  0
 29 30  1  0
 30 31  1  0
 31 32  1  0
 31 33  1  0
 19 34  1  0
 34 35  2  0
 35 36  1  0
 36 37  2  0
 37 38  1  0
 38 39  2  0
 37 40  1  0
  8  3  1  0
 23 18  1  0
 29 25  1  0
 39 34  1  0
M  END
$$$$
