
     RDKit          3D

 40 43  0  0  0  0  0  0  0  0999 V2000
   -3.6489   -0.9961    7.7129 C   0  0  0  0  0  0  0  0  0  0  0  0
   -2.8509    0.3134    7.7592 C   0  0  0  0  0  0  0  0  0  0  0  0
   -1.6044    0.0834    8.5367 C   0  0  0  0  0  0  0  0  0  0  0  0
   -0.5650   -0.6614    8.0136 C   0  0  0  0  0  0  0  0  0  0  0  0
    0.5993   -0.8849    8.7197 C   0  0  0  0  0  0  0  0  0  0  0  0
    0.7368   -0.3526    9.9846 C   0  0  0  0  0  0  0  0  0  0  0  0
   -0.2666    0.3914   10.5417 C   0  0  0  0  0  0  0  0  0  0  0  0
   -1.4128    0.5931    9.8080 C   0  0  0  0  0  0  0  0  0  0  0  0
   -0.1164    0.9690   11.9124 C   0  0  0  0  0  0  0  0  0  0  0  0
   -1.3171    1.4798   12.3647 F   0  0  0  0  0  0  0  0  0  0  0  0
    0.2321   -0.0579   12.7778 F   0  0  0  0  0  0  0  0  0  0  0  0
    0.8911    1.8987   11.9537 F   0  0  0  0  0  0  0  0  0  0  0  0
    1.6961   -1.6783    8.1542 C   0  0  0  0  0  0  0  0  0  0  0  0
    2.8917   -1.4344    8.8163 F   0  0  0  0  0  0  0  0  0  0  0  0
    1.8777   -1.4526    6.8039 F   0  0  0  0  0  0  0  0  0  0  0  0
    1.4138   -3.0324    8.3432 F   0  0  0  0  0  0  0  0  0  0  0  0
   -3.6689    1.2627    8.3034 O   0  0  0  0  0  0  0  0  0  0  0  0
   -4.0415    2.2941    7.4479 C   0  0  0  0  0  0  0  0  0  0  0  0
   -3.6588    3.6210    8.0490 C   0  0  0  0  0  0  0  0  0  0  0  0
   -4.6913    4.1172    8.8679 N   0  0  0  0  0  0  0  0  0  0  0  0
   -5.7465    3.2325    9.1938 C   0  0  0  0  0  0  0  0  0  0  0  0
   -6.2837    2.4493    8.0276 C   0  0  0  0  0  0  0  0  0  0  0  0
   -5.3529    2.2177    7.0443 O   0  0  0  0  0  0  0  0  0  0  0  0
   -4.4265    5.1898    9.7284 C   0  0  0  0  0  0  0  0  0  0  0  0
   -3.2999    4.8093   10.6474 C   0  0  0  0  0  0  0  0  0  0  0  0
   -1.9692    4.9163   10.3661 N   0  0  0  0  0  0  0  0  0  0  0  0
   -1.2849    4.4891   11.4057 N   0  0  0  0  0  0  0  0  0  0  0  0
   -2.1166    4.1103   12.3477 N   0  0  0  0  0  0  0  0  0  0  0  0
   -3.3703    4.2955   11.9103 C   0  0  0  0  0  0  0  0  0  0  0  0
   -4.5988    3.9995   12.6547 C   0  0  0  0  0  0  0  0  0  0  0  0
   -4.4075    3.9987   14.0889 N   0  0  0  0  0  0  0  0  0  0  0  0
   -3.0041    3.7487   14.3667 C   0  0  0  0  0  0  0  0  0  0  0  0
   -4.8110    5.2196   14.7104 C   0  0  0  0  0  0  0  0  0  0  0  0
   -3.1131    4.5782    7.0631 C   0  0  0  0  0  0  0  0  0  0  0  0
   -3.8057    5.7047    6.6294 C   0  0  0  0  0  0  0  0  0  0  0  0
   -3.2624    6.5732    5.7035 C   0  0  0  0  0  0  0  0  0  0  0  0
   -2.0103    6.3594    5.1707 C   0  0  0  0  0  0  0  0  0  0  0  0
   -1.3127    5.2482    5.5908 C   0  0  0  0  0  0  0  0  0  0  0  0
   -1.8650    4.3823    6.5198 C   0  0  0  0  0  0  0  0  0  0  0  0
   -1.4670    7.2142    4.2568 F   0  0  0  0  0  0  0  0  0  0  0  0
  1  2  1  0
  2  3  1  0
  3  4  2  0
  4  5  1  0
  5  6  2  0
  6  7  1  0
  7  8  2  0
  7  9  1  0
  9 10  1  0
  9 11  1  0
  9 12  1  0
  5 13  1  0
 13 14  1  0
 13 15  1  0
 13 16  1  0
  2 17  1  0
 17 18  1  0
 18 19  1  0
 19 20  1  0
 20 21  1  0
 21 22  1  0
 22 23  1  0
 20 24  1  0
 24 25  1  0
 25 26  2  0
 26 27  1  0
 27 28  1  0
 28 29  2  0
 29 30  1  0
 30 31  1  0
 31 32  1  0
 31 33  1  0
 19 34  1  0
 34 35  2  0
 35 36  1  0
 36 37  2  0
 37 38  1  0
 38 39  2  0
 37 40  1  0
  8  3  1  0
 23 18  1  0
 29 25  1  0
 39 34  1  0
M  END
$$$$
