
     RDKit          3D

 40 43  0  0  0  0  0  0  0  0999 V2000
   -5.3074    2.4682    5.5015 C   0  0  0  0  0  0  0  0  0  0  0  0
   -4.2923    3.1973    6.3913 C   0  0  0  0  0  0  0  0  0  0  0  0
   -2.9426    2.6264    6.1392 C   0  0  0  0  0  0  0  0  0  0  0  0
   -2.2782    2.8646    4.9515 C   0  0  0  0  0  0  0  0  0  0  0  0
   -1.0252    2.3441    4.6999 C   0  0  0  0  0  0  0  0  0  0  0  0
   -0.4120    1.5628    5.6568 C   0  0  0  0  0  0  0  0  0  0  0  0
   -1.0328    1.3013    6.8472 C   0  0  0  0  0  0  0  0  0  0  0  0
   -2.2814    1.8371    7.0626 C   0  0  0  0  0  0  0  0  0  0  0  0
   -0.3670    0.4552    7.8844 C   0  0  0  0  0  0  0  0  0  0  0  0
    0.6212    1.1652    8.5375 F   0  0  0  0  0  0  0  0  0  0  0  0
   -1.3146    0.1180    8.8401 F   0  0  0  0  0  0  0  0  0  0  0  0
    0.1048   -0.7144    7.3455 F   0  0  0  0  0  0  0  0  0  0  0  0
   -0.3297    2.6031    3.4344 C   0  0  0  0  0  0  0  0  0  0  0  0
    1.0465    2.6454    3.6120 F   0  0  0  0  0  0  0  0  0  0  0  0
   -0.7396    3.7751    2.8297 F   0  0  0  0  0  0  0  0  0  0  0  0
   -0.5787    1.5430    2.5608 F   0  0  0  0  0  0  0  0  0  0  0  0
   -4.7152    3.0543    7.6825 O   0  0  0  0  0  0  0  0  0  0  0  0
   -4.3976    4.1052    8.5366 C   0  0  0  0  0  0  0  0  0  0  0  0
   -3.7804    3.5682    9.8011 C   0  0  0  0  0  0  0  0  0  0  0  0
   -4.7712    3.2763   10.7582 N   0  0  0  0  0  0  0  0  0  0  0  0
   -6.1177    3.2773   10.3231 C   0  0  0  0  0  0  0  0  0  0  0  0
   -6.4941    4.4566    9.4689 C   0  0  0  0  0  0  0  0  0  0  0  0
   -5.4448    4.9700    8.7461 O   0  0  0  0  0  0  0  0  0  0  0  0
   -4.4318    2.5165   11.8846 C   0  0  0  0  0  0  0  0  0  0  0  0
   -4.0302    3.4460   12.9951 C   0  0  0  0  0  0  0  0  0  0  0  0
   -4.6989    4.5733   13.3738 N   0  0  0  0  0  0  0  0  0  0  0  0
   -4.0524    5.1276   14.3770 N   0  0  0  0  0  0  0  0  0  0  0  0
   -2.9938    4.4065   14.6634 N   0  0  0  0  0  0  0  0  0  0  0  0
   -2.9512    3.3595   13.8270 C   0  0  0  0  0  0  0  0  0  0  0  0
   -1.9287    2.3082   13.8084 C   0  0  0  0  0  0  0  0  0  0  0  0
   -1.4592    1.9493   15.1290 N   0  0  0  0  0  0  0  0  0  0  0  0
   -0.9216    3.1385   15.7663 C   0  0  0  0  0  0  0  0  0  0  0  0
   -2.4782    1.3810   15.9526 C   0  0  0  0  0  0  0  0  0  0  0  0
   -2.6424    4.3759   10.2896 C   0  0  0  0  0  0  0  0  0  0  0  0
   -2.7771    5.6804   10.7555 C   0  0  0  0  0  0  0  0  0  0  0  0
   -1.6880    6.4035   11.2001 C   0  0  0  0  0  0  0  0  0  0  0  0
   -0.4216    5.8617   11.2008 C   0  0  0  0  0  0  0  0  0  0  0  0
   -0.2729    4.5710   10.7426 C   0  0  0  0  0  0  0  0  0  0  0  0
   -1.3706    3.8529   10.2984 C   0  0  0  0  0  0  0  0  0  0  0  0
    0.6585    6.5699   11.6402 F   0  0  0  0  0  0  0  0  0  0  0  0
  1  2  1  0
  2  3  1  0
  3  4  2  0
  4  5  1  0
  5  6  2  0
  6  7  1  0
  7  8  2  0
  7  9  1  0
  9 10  1  0
  9 11  1  0
  9 12  1  0
  5 13  1  0
 13 14  1  0
 13 15  1  0
 13 16  1  0
  2 17  1  0
 17 18  1  0
 18 19  1  0
 19 20  1  0
 20 21  1  0
 21 22  1  0
 22 23  1  0
 20 24  1  0
 24 25  1  0
 25 26  2  0
 26 27  1  0
 27 28  1  0
 28 29  2  0
 29 30  1  0
 30 31  1  0
 31 32  1  0
 31 33  1  0
 19 34  1  0
 34 35  2  0
 35 36  1  0
 36 37  2  0
 37 38  1  0
 38 39  2  0
 37 40  1  0
  8  3  1  0
 23 18  1  0
 29 25  1  0
 39 34  1  0
M  END
$$$$
