
     RDKit          3D

 40 43  0  0  0  0  0  0  0  0999 V2000
   -3.2069    5.2175    5.9750 C   0  0  0  0  0  0  0  0  0  0  0  0
   -2.8018    4.4068    7.2129 C   0  0  0  0  0  0  0  0  0  0  0  0
   -2.8085    2.9626    6.8586 C   0  0  0  0  0  0  0  0  0  0  0  0
   -3.9841    2.3140    6.5326 C   0  0  0  0  0  0  0  0  0  0  0  0
   -4.0099    0.9748    6.2006 C   0  0  0  0  0  0  0  0  0  0  0  0
   -2.8325    0.2567    6.1915 C   0  0  0  0  0  0  0  0  0  0  0  0
   -1.6454    0.8583    6.5072 C   0  0  0  0  0  0  0  0  0  0  0  0
   -1.6585    2.1948    6.8332 C   0  0  0  0  0  0  0  0  0  0  0  0
   -0.3693    0.0795    6.4961 C   0  0  0  0  0  0  0  0  0  0  0  0
   -0.6150   -1.2631    6.2855 F   0  0  0  0  0  0  0  0  0  0  0  0
    0.3952    0.5185    5.4249 F   0  0  0  0  0  0  0  0  0  0  0  0
    0.3593    0.3007    7.6369 F   0  0  0  0  0  0  0  0  0  0  0  0
   -5.2645    0.2964    5.8570 C   0  0  0  0  0  0  0  0  0  0  0  0
   -5.8565    0.8630    4.7364 F   0  0  0  0  0  0  0  0  0  0  0  0
   -6.1754    0.3000    6.8950 F   0  0  0  0  0  0  0  0  0  0  0  0
   -4.9804   -1.0285    5.5212 F   0  0  0  0  0  0  0  0  0  0  0  0
   -3.6789    4.7306    8.2091 O   0  0  0  0  0  0  0  0  0  0  0  0
   -3.1401    5.4491    9.2713 C   0  0  0  0  0  0  0  0  0  0  0  0
   -2.8533    4.5220   10.4230 C   0  0  0  0  0  0  0  0  0  0  0  0
   -3.9784    4.3998   11.2608 N   0  0  0  0  0  0  0  0  0  0  0  0
   -5.2060    4.9164   10.7826 C   0  0  0  0  0  0  0  0  0  0  0  0
   -5.1079    6.2876   10.1726 C   0  0  0  0  0  0  0  0  0  0  0  0
   -3.8828    6.5541    9.6115 O   0  0  0  0  0  0  0  0  0  0  0  0
   -4.0091    3.3809   12.2211 C   0  0  0  0  0  0  0  0  0  0  0  0
   -3.9287    2.0524   11.5233 C   0  0  0  0  0  0  0  0  0  0  0  0
   -4.5758    1.7157   10.3703 N   0  0  0  0  0  0  0  0  0  0  0  0
   -4.2657    0.4746   10.0621 N   0  0  0  0  0  0  0  0  0  0  0  0
   -3.4453   -0.0060   10.9669 N   0  0  0  0  0  0  0  0  0  0  0  0
   -3.2170    0.9447   11.8844 C   0  0  0  0  0  0  0  0  0  0  0  0
   -2.3564    0.8185   13.0652 C   0  0  0  0  0  0  0  0  0  0  0  0
   -1.6563   -0.4463   13.1251 N   0  0  0  0  0  0  0  0  0  0  0  0
   -1.6047   -0.8796   14.5103 C   0  0  0  0  0  0  0  0  0  0  0  0
   -2.2623   -1.4626   12.3253 C   0  0  0  0  0  0  0  0  0  0  0  0
   -1.5772    4.8144   11.1101 C   0  0  0  0  0  0  0  0  0  0  0  0
   -1.5062    5.3173   12.4058 C   0  0  0  0  0  0  0  0  0  0  0  0
   -0.2937    5.5811   13.0117 C   0  0  0  0  0  0  0  0  0  0  0  0
    0.8971    5.3564   12.3568 C   0  0  0  0  0  0  0  0  0  0  0  0
    0.8425    4.8583   11.0735 C   0  0  0  0  0  0  0  0  0  0  0  0
   -0.3779    4.5966   10.4734 C   0  0  0  0  0  0  0  0  0  0  0  0
    2.0985    5.6132   12.9500 F   0  0  0  0  0  0  0  0  0  0  0  0
  1  2  1  0
  2  3  1  0
  3  4  2  0
  4  5  1  0
  5  6  2  0
  6  7  1  0
  7  8  2  0
  7  9  1  0
  9 10  1  0
  9 11  1  0
  9 12  1  0
  5 13  1  0
 13 14  1  0
 13 15  1  0
 13 16  1  0
  2 17  1  0
 17 18  1  0
 18 19  1  0
 19 20  1  0
 20 21  1  0
 21 22  1  0
 22 23  1  0
 20 24  1  0
 24 25  1  0
 25 26  2  0
 26 27  1  0
 27 28  1  0
 28 29  2  0
 29 30  1  0
 30 31  1  0
 31 32  1  0
 31 33  1  0
 19 34  1  0
 34 35  2  0
 35 36  1  0
 36 37  2  0
 37 38  1  0
 38 39  2  0
 37 40  1  0
  8  3  1  0
 23 18  1  0
 29 25  1  0
 39 34  1  0
M  END
$$$$
