
     RDKit          3D

 40 43  0  0  0  0  0  0  0  0999 V2000
   -2.5771    3.8729    4.4094 C   0  0  0  0  0  0  0  0  0  0  0  0
   -2.0678    3.3140    5.7444 C   0  0  0  0  0  0  0  0  0  0  0  0
   -2.2844    1.8429    5.7576 C   0  0  0  0  0  0  0  0  0  0  0  0
   -3.5577    1.3093    5.7038 C   0  0  0  0  0  0  0  0  0  0  0  0
   -3.7784   -0.0529    5.7144 C   0  0  0  0  0  0  0  0  0  0  0  0
   -2.7019   -0.9126    5.7803 C   0  0  0  0  0  0  0  0  0  0  0  0
   -1.4240   -0.4282    5.8347 C   0  0  0  0  0  0  0  0  0  0  0  0
   -1.2428    0.9355    5.8223 C   0  0  0  0  0  0  0  0  0  0  0  0
   -0.2576   -1.3608    5.9051 C   0  0  0  0  0  0  0  0  0  0  0  0
    0.3943   -1.4249    4.6894 F   0  0  0  0  0  0  0  0  0  0  0  0
    0.6512   -0.8475    6.8192 F   0  0  0  0  0  0  0  0  0  0  0  0
   -0.6366   -2.5993    6.3563 F   0  0  0  0  0  0  0  0  0  0  0  0
   -5.1351   -0.6080    5.6576 C   0  0  0  0  0  0  0  0  0  0  0  0
   -6.0789    0.3157    6.0859 F   0  0  0  0  0  0  0  0  0  0  0  0
   -5.2707   -1.7642    6.4005 F   0  0  0  0  0  0  0  0  0  0  0  0
   -5.4462   -0.8967    4.3276 F   0  0  0  0  0  0  0  0  0  0  0  0
   -2.7350    3.9750    6.7366 O   0  0  0  0  0  0  0  0  0  0  0  0
   -1.9320    4.6057    7.6810 C   0  0  0  0  0  0  0  0  0  0  0  0
   -1.9858    3.8520    8.9838 C   0  0  0  0  0  0  0  0  0  0  0  0
   -3.0473    4.3125    9.7863 N   0  0  0  0  0  0  0  0  0  0  0  0
   -3.9992    5.1664    9.1803 C   0  0  0  0  0  0  0  0  0  0  0  0
   -3.4045    6.2705    8.3503 C   0  0  0  0  0  0  0  0  0  0  0  0
   -2.1874    5.9508    7.7995 O   0  0  0  0  0  0  0  0  0  0  0  0
   -3.4352    3.5631   10.9040 C   0  0  0  0  0  0  0  0  0  0  0  0
   -3.2977    4.4166   12.1332 C   0  0  0  0  0  0  0  0  0  0  0  0
   -2.1356    4.9502   12.6089 N   0  0  0  0  0  0  0  0  0  0  0  0
   -2.4043    5.6358   13.6995 N   0  0  0  0  0  0  0  0  0  0  0  0
   -3.6910    5.5684   13.9495 N   0  0  0  0  0  0  0  0  0  0  0  0
   -4.2721    4.8218   12.9995 C   0  0  0  0  0  0  0  0  0  0  0  0
   -5.6994    4.4976   12.9064 C   0  0  0  0  0  0  0  0  0  0  0  0
   -6.5176    5.2703   13.8157 N   0  0  0  0  0  0  0  0  0  0  0  0
   -7.7608    5.6071   13.1444 C   0  0  0  0  0  0  0  0  0  0  0  0
   -6.8003    4.5862   15.0370 C   0  0  0  0  0  0  0  0  0  0  0  0
   -0.6747    3.7508    9.6598 C   0  0  0  0  0  0  0  0  0  0  0  0
    0.0691    4.8599   10.0516 C   0  0  0  0  0  0  0  0  0  0  0  0
    1.2924    4.7233   10.6776 C   0  0  0  0  0  0  0  0  0  0  0  0
    1.8267    3.4813   10.9404 C   0  0  0  0  0  0  0  0  0  0  0  0
    1.1014    2.3740   10.5585 C   0  0  0  0  0  0  0  0  0  0  0  0
   -0.1245    2.5200    9.9311 C   0  0  0  0  0  0  0  0  0  0  0  0
    3.0339    3.3392   11.5600 F   0  0  0  0  0  0  0  0  0  0  0  0
  1  2  1  0
  2  3  1  0
  3  4  2  0
  4  5  1  0
  5  6  2  0
  6  7  1  0
  7  8  2  0
  7  9  1  0
  9 10  1  0
  9 11  1  0
  9 12  1  0
  5 13  1  0
 13 14  1  0
 13 15  1  0
 13 16  1  0
  2 17  1  0
 17 18  1  0
 18 19  1  0
 19 20  1  0
 20 21  1  0
 21 22  1  0
 22 23  1  0
 20 24  1  0
 24 25  1  0
 25 26  2  0
 26 27  1  0
 27 28  1  0
 28 29  2  0
 29 30  1  0
 30 31  1  0
 31 32  1  0
 31 33  1  0
 19 34  1  0
 34 35  2  0
 35 36  1  0
 36 37  2  0
 37 38  1  0
 38 39  2  0
 37 40  1  0
  8  3  1  0
 23 18  1  0
 29 25  1  0
 39 34  1  0
M  END
$$$$
