
     RDKit          3D

 40 43  0  0  0  0  0  0  0  0999 V2000
   -0.8048    0.2317    6.3561 C   0  0  0  0  0  0  0  0  0  0  0  0
   -1.0307    0.9723    7.6806 C   0  0  0  0  0  0  0  0  0  0  0  0
    0.2923    1.2680    8.2917 C   0  0  0  0  0  0  0  0  0  0  0  0
    1.2978    0.3206    8.3080 C   0  0  0  0  0  0  0  0  0  0  0  0
    2.5319    0.5769    8.8698 C   0  0  0  0  0  0  0  0  0  0  0  0
    2.7761    1.8121    9.4329 C   0  0  0  0  0  0  0  0  0  0  0  0
    1.8098    2.7800    9.4386 C   0  0  0  0  0  0  0  0  0  0  0  0
    0.5917    2.4883    8.8696 C   0  0  0  0  0  0  0  0  0  0  0  0
    2.0756    4.1189   10.0482 C   0  0  0  0  0  0  0  0  0  0  0  0
    1.3748    4.2693   11.2286 F   0  0  0  0  0  0  0  0  0  0  0  0
    3.4230    4.1860   10.3723 F   0  0  0  0  0  0  0  0  0  0  0  0
    1.8176    5.1311    9.1594 F   0  0  0  0  0  0  0  0  0  0  0  0
    3.5918   -0.4373    8.8821 C   0  0  0  0  0  0  0  0  0  0  0  0
    3.8456   -0.9204    7.6055 F   0  0  0  0  0  0  0  0  0  0  0  0
    3.3039   -1.5008    9.7146 F   0  0  0  0  0  0  0  0  0  0  0  0
    4.7771    0.1581    9.3175 F   0  0  0  0  0  0  0  0  0  0  0  0
   -1.8262    0.1758    8.4549 O   0  0  0  0  0  0  0  0  0  0  0  0
   -3.1731    0.5215    8.4835 C   0  0  0  0  0  0  0  0  0  0  0  0
   -3.3251    1.9514    8.9312 C   0  0  0  0  0  0  0  0  0  0  0  0
   -3.4204    2.0304   10.3339 N   0  0  0  0  0  0  0  0  0  0  0  0
   -3.1112    0.8651   11.0746 C   0  0  0  0  0  0  0  0  0  0  0  0
   -3.7354   -0.3948   10.5407 C   0  0  0  0  0  0  0  0  0  0  0  0
   -3.9480   -0.3716    9.1839 O   0  0  0  0  0  0  0  0  0  0  0  0
   -3.2890    3.2764   10.9595 C   0  0  0  0  0  0  0  0  0  0  0  0
   -3.9780    3.2256   12.2941 C   0  0  0  0  0  0  0  0  0  0  0  0
   -3.5236    2.5732   13.4029 N   0  0  0  0  0  0  0  0  0  0  0  0
   -4.3888    2.7509   14.3783 N   0  0  0  0  0  0  0  0  0  0  0  0
   -5.3837    3.4907   13.9475 N   0  0  0  0  0  0  0  0  0  0  0  0
   -5.1600    3.8009   12.6625 C   0  0  0  0  0  0  0  0  0  0  0  0
   -6.0291    4.6133   11.8048 C   0  0  0  0  0  0  0  0  0  0  0  0
   -6.4747    5.8338   12.4414 N   0  0  0  0  0  0  0  0  0  0  0  0
   -6.6325    5.5813   13.8629 C   0  0  0  0  0  0  0  0  0  0  0  0
   -5.5805    6.9297   12.2438 C   0  0  0  0  0  0  0  0  0  0  0  0
   -4.3581    2.6965    8.1804 C   0  0  0  0  0  0  0  0  0  0  0  0
   -4.6970    4.0179    8.4558 C   0  0  0  0  0  0  0  0  0  0  0  0
   -5.6711    4.6782    7.7332 C   0  0  0  0  0  0  0  0  0  0  0  0
   -6.3478    4.0545    6.7084 C   0  0  0  0  0  0  0  0  0  0  0  0
   -6.0228    2.7462    6.4241 C   0  0  0  0  0  0  0  0  0  0  0  0
   -5.0446    2.0915    7.1538 C   0  0  0  0  0  0  0  0  0  0  0  0
   -7.3101    4.7015    5.9895 F   0  0  0  0  0  0  0  0  0  0  0  0
  1  2  1  0
  2  3  1  0
  3  4  2  0
  4  5  1  0
  5  6  2  0
  6  7  1  0
  7  8  2  0
  7  9  1  0
  9 10  1  0
  9 11  1  0
  9 12  1  0
  5 13  1  0
 13 14  1  0
 13 15  1  0
 13 16  1  0
  2 17  1  0
 17 18  1  0
 18 19  1  0
 19 20  1  0
 20 21  1  0
 21 22  1  0
 22 23  1  0
 20 24  1  0
 24 25  1  0
 25 26  2  0
 26 27  1  0
 27 28  1  0
 28 29  2  0
 29 30  1  0
 30 31  1  0
 31 32  1  0
 31 33  1  0
 19 34  1  0
 34 35  2  0
 35 36  1  0
 36 37  2  0
 37 38  1  0
 38 39  2  0
 37 40  1  0
  8  3  1  0
 23 18  1  0
 29 25  1  0
 39 34  1  0
M  END
$$$$
