
     RDKit          3D

 40 43  0  0  0  0  0  0  0  0999 V2000
   -2.2501    2.8944    3.5782 C   0  0  0  0  0  0  0  0  0  0  0  0
   -2.0377    2.8681    5.0974 C   0  0  0  0  0  0  0  0  0  0  0  0
   -1.3622    1.5943    5.4612 C   0  0  0  0  0  0  0  0  0  0  0  0
   -0.2690    1.5831    6.3060 C   0  0  0  0  0  0  0  0  0  0  0  0
    0.3703    0.4111    6.6554 C   0  0  0  0  0  0  0  0  0  0  0  0
   -0.0895   -0.7874    6.1509 C   0  0  0  0  0  0  0  0  0  0  0  0
   -1.1688   -0.8232    5.3114 C   0  0  0  0  0  0  0  0  0  0  0  0
   -1.7806    0.3650    4.9852 C   0  0  0  0  0  0  0  0  0  0  0  0
   -1.6672   -2.1228    4.7658 C   0  0  0  0  0  0  0  0  0  0  0  0
   -2.7900   -2.5448    5.4503 F   0  0  0  0  0  0  0  0  0  0  0  0
   -2.0552   -1.9181    3.4496 F   0  0  0  0  0  0  0  0  0  0  0  0
   -0.6774   -3.0722    4.7578 F   0  0  0  0  0  0  0  0  0  0  0  0
    1.5308    0.4115    7.5528 C   0  0  0  0  0  0  0  0  0  0  0  0
    2.1101   -0.8476    7.6326 F   0  0  0  0  0  0  0  0  0  0  0  0
    1.2205    0.8435    8.8273 F   0  0  0  0  0  0  0  0  0  0  0  0
    2.5067    1.2579    7.0233 F   0  0  0  0  0  0  0  0  0  0  0  0
   -3.2653    3.0222    5.6768 O   0  0  0  0  0  0  0  0  0  0  0  0
   -3.3280    3.9524    6.7090 C   0  0  0  0  0  0  0  0  0  0  0  0
   -3.0797    3.2701    8.0285 C   0  0  0  0  0  0  0  0  0  0  0  0
   -4.2833    2.7891    8.5787 N   0  0  0  0  0  0  0  0  0  0  0  0
   -5.4249    2.7819    7.7426 C   0  0  0  0  0  0  0  0  0  0  0  0
   -5.6330    4.0515    6.9637 C   0  0  0  0  0  0  0  0  0  0  0  0
   -4.4673    4.7202    6.6794 O   0  0  0  0  0  0  0  0  0  0  0  0
   -4.2341    1.8921    9.6531 C   0  0  0  0  0  0  0  0  0  0  0  0
   -4.5632    2.6315   10.9193 C   0  0  0  0  0  0  0  0  0  0  0  0
   -5.4796    3.6347   11.0430 N   0  0  0  0  0  0  0  0  0  0  0  0
   -5.4937    4.0381   12.2955 N   0  0  0  0  0  0  0  0  0  0  0  0
   -4.6252    3.3383   12.9873 N   0  0  0  0  0  0  0  0  0  0  0  0
   -4.0330    2.4599   12.1657 C   0  0  0  0  0  0  0  0  0  0  0  0
   -3.0000    1.4876   12.5381 C   0  0  0  0  0  0  0  0  0  0  0  0
   -2.0747    1.9936   13.5287 N   0  0  0  0  0  0  0  0  0  0  0  0
   -1.8301    0.9487   14.5073 C   0  0  0  0  0  0  0  0  0  0  0  0
   -0.8348    2.4285   12.9692 C   0  0  0  0  0  0  0  0  0  0  0  0
   -2.2299    4.0573    8.9473 C   0  0  0  0  0  0  0  0  0  0  0  0
   -0.8709    3.8157    9.1250 C   0  0  0  0  0  0  0  0  0  0  0  0
   -0.1119    4.5717    9.9964 C   0  0  0  0  0  0  0  0  0  0  0  0
   -0.6703    5.5977   10.7263 C   0  0  0  0  0  0  0  0  0  0  0  0
   -2.0148    5.8487   10.5606 C   0  0  0  0  0  0  0  0  0  0  0  0
   -2.7686    5.0856    9.6846 C   0  0  0  0  0  0  0  0  0  0  0  0
    0.0741    6.3495   11.5877 F   0  0  0  0  0  0  0  0  0  0  0  0
  1  2  1  0
  2  3  1  0
  3  4  2  0
  4  5  1  0
  5  6  2  0
  6  7  1  0
  7  8  2  0
  7  9  1  0
  9 10  1  0
  9 11  1  0
  9 12  1  0
  5 13  1  0
 13 14  1  0
 13 15  1  0
 13 16  1  0
  2 17  1  0
 17 18  1  0
 18 19  1  0
 19 20  1  0
 20 21  1  0
 21 22  1  0
 22 23  1  0
 20 24  1  0
 24 25  1  0
 25 26  2  0
 26 27  1  0
 27 28  1  0
 28 29  2  0
 29 30  1  0
 30 31  1  0
 31 32  1  0
 31 33  1  0
 19 34  1  0
 34 35  2  0
 35 36  1  0
 36 37  2  0
 37 38  1  0
 38 39  2  0
 37 40  1  0
  8  3  1  0
 23 18  1  0
 29 25  1  0
 39 34  1  0
M  END
$$$$
