
     RDKit          3D

 40 43  0  0  0  0  0  0  0  0999 V2000
   -4.9934    6.2874   12.0462 C   0  0  0  0  0  0  0  0  0  0  0  0
   -4.3755    4.8922   11.8874 C   0  0  0  0  0  0  0  0  0  0  0  0
   -2.8997    5.0066   12.0294 C   0  0  0  0  0  0  0  0  0  0  0  0
   -2.1360    5.6251   11.0582 C   0  0  0  0  0  0  0  0  0  0  0  0
   -0.7657    5.7414   11.1728 C   0  0  0  0  0  0  0  0  0  0  0  0
   -0.1333    5.2282   12.2858 C   0  0  0  0  0  0  0  0  0  0  0  0
   -0.8500    4.6082   13.2721 C   0  0  0  0  0  0  0  0  0  0  0  0
   -2.2142    4.5107   13.1234 C   0  0  0  0  0  0  0  0  0  0  0  0
   -0.1640    4.0530   14.4788 C   0  0  0  0  0  0  0  0  0  0  0  0
    0.8168    4.9159   14.9269 F   0  0  0  0  0  0  0  0  0  0  0  0
   -1.0998    3.9483   15.4977 F   0  0  0  0  0  0  0  0  0  0  0  0
    0.3232    2.7935   14.2396 F   0  0  0  0  0  0  0  0  0  0  0  0
    0.0351    6.3995   10.1346 C   0  0  0  0  0  0  0  0  0  0  0  0
    1.3717    6.4810   10.5012 F   0  0  0  0  0  0  0  0  0  0  0  0
   -0.4235    7.6657    9.8286 F   0  0  0  0  0  0  0  0  0  0  0  0
   -0.0057    5.6213    8.9762 F   0  0  0  0  0  0  0  0  0  0  0  0
   -4.7735    4.4133   10.6713 O   0  0  0  0  0  0  0  0  0  0  0  0
   -5.1269    3.0683   10.6438 C   0  0  0  0  0  0  0  0  0  0  0  0
   -4.4990    2.3986    9.4498 C   0  0  0  0  0  0  0  0  0  0  0  0
   -5.3365    2.4961    8.3220 N   0  0  0  0  0  0  0  0  0  0  0  0
   -6.4402    3.3779    8.4044 C   0  0  0  0  0  0  0  0  0  0  0  0
   -7.2290    3.2690    9.6802 C   0  0  0  0  0  0  0  0  0  0  0  0
   -6.4805    2.8602   10.7570 O   0  0  0  0  0  0  0  0  0  0  0  0
   -4.8208    2.1847    7.0578 C   0  0  0  0  0  0  0  0  0  0  0  0
   -3.3498    2.4918    7.0435 C   0  0  0  0  0  0  0  0  0  0  0  0
   -2.6555    3.1196    8.0362 N   0  0  0  0  0  0  0  0  0  0  0  0
   -1.3945    3.2128    7.6720 N   0  0  0  0  0  0  0  0  0  0  0  0
   -1.2435    2.6718    6.4858 N   0  0  0  0  0  0  0  0  0  0  0  0
   -2.4338    2.2165    6.0693 C   0  0  0  0  0  0  0  0  0  0  0  0
   -2.7047    1.5428    4.7950 C   0  0  0  0  0  0  0  0  0  0  0  0
   -1.6236    1.6737    3.8424 N   0  0  0  0  0  0  0  0  0  0  0  0
   -1.2378    3.0722    3.7722 C   0  0  0  0  0  0  0  0  0  0  0  0
   -0.4852    0.8765    4.1711 C   0  0  0  0  0  0  0  0  0  0  0  0
   -3.9780    1.0457    9.7402 C   0  0  0  0  0  0  0  0  0  0  0  0
   -4.6381   -0.1219    9.3691 C   0  0  0  0  0  0  0  0  0  0  0  0
   -4.1199   -1.3677    9.6626 C   0  0  0  0  0  0  0  0  0  0  0  0
   -2.9261   -1.5055   10.3357 C   0  0  0  0  0  0  0  0  0  0  0  0
   -2.2611   -0.3582   10.7093 C   0  0  0  0  0  0  0  0  0  0  0  0
   -2.7880    0.8873   10.4110 C   0  0  0  0  0  0  0  0  0  0  0  0
   -2.4076   -2.7333   10.6274 F   0  0  0  0  0  0  0  0  0  0  0  0
  1  2  1  0
  2  3  1  0
  3  4  2  0
  4  5  1  0
  5  6  2  0
  6  7  1  0
  7  8  2  0
  7  9  1  0
  9 10  1  0
  9 11  1  0
  9 12  1  0
  5 13  1  0
 13 14  1  0
 13 15  1  0
 13 16  1  0
  2 17  1  0
 17 18  1  0
 18 19  1  0
 19 20  1  0
 20 21  1  0
 21 22  1  0
 22 23  1  0
 20 24  1  0
 24 25  1  0
 25 26  2  0
 26 27  1  0
 27 28  1  0
 28 29  2  0
 29 30  1  0
 30 31  1  0
 31 32  1  0
 31 33  1  0
 19 34  1  0
 34 35  2  0
 35 36  1  0
 36 37  2  0
 37 38  1  0
 38 39  2  0
 37 40  1  0
  8  3  1  0
 23 18  1  0
 29 25  1  0
 39 34  1  0
M  END
$$$$
