
     RDKit          3D

 40 43  0  0  0  0  0  0  0  0999 V2000
   -4.0831    4.4801    7.4916 C   0  0  0  0  0  0  0  0  0  0  0  0
   -2.8117    4.1492    8.2840 C   0  0  0  0  0  0  0  0  0  0  0  0
   -2.0346    3.1288    7.5317 C   0  0  0  0  0  0  0  0  0  0  0  0
   -1.1074    2.3265    8.1685 C   0  0  0  0  0  0  0  0  0  0  0  0
   -0.3775    1.3739    7.4873 C   0  0  0  0  0  0  0  0  0  0  0  0
   -0.5737    1.2120    6.1318 C   0  0  0  0  0  0  0  0  0  0  0  0
   -1.4816    1.9842    5.4608 C   0  0  0  0  0  0  0  0  0  0  0  0
   -2.1909    2.9236    6.1729 C   0  0  0  0  0  0  0  0  0  0  0  0
   -1.6946    1.8074    3.9916 C   0  0  0  0  0  0  0  0  0  0  0  0
   -1.4827    2.9942    3.3181 F   0  0  0  0  0  0  0  0  0  0  0  0
   -0.7479    0.9078    3.5233 F   0  0  0  0  0  0  0  0  0  0  0  0
   -2.9307    1.2750    3.7279 F   0  0  0  0  0  0  0  0  0  0  0  0
    0.6051    0.5282    8.1741 C   0  0  0  0  0  0  0  0  0  0  0  0
    1.4298   -0.1271    7.2698 F   0  0  0  0  0  0  0  0  0  0  0  0
    0.0181   -0.4066    9.0040 F   0  0  0  0  0  0  0  0  0  0  0  0
    1.4380    1.3429    8.9433 F   0  0  0  0  0  0  0  0  0  0  0  0
   -3.2084    3.7321    9.5230 O   0  0  0  0  0  0  0  0  0  0  0  0
   -3.2343    4.7155   10.5063 C   0  0  0  0  0  0  0  0  0  0  0  0
   -3.0858    4.0842   11.8656 C   0  0  0  0  0  0  0  0  0  0  0  0
   -4.3415    3.7245   12.3915 N   0  0  0  0  0  0  0  0  0  0  0  0
   -5.4505    3.7617   11.5134 C   0  0  0  0  0  0  0  0  0  0  0  0
   -5.5320    5.0022   10.6671 C   0  0  0  0  0  0  0  0  0  0  0  0
   -4.3087    5.5652   10.3961 O   0  0  0  0  0  0  0  0  0  0  0  0
   -4.3995    2.8820   13.5087 C   0  0  0  0  0  0  0  0  0  0  0  0
   -3.0365    2.2957   13.7469 C   0  0  0  0  0  0  0  0  0  0  0  0
   -1.8532    2.9714   13.6771 N   0  0  0  0  0  0  0  0  0  0  0  0
   -0.8750    2.1332   13.9455 N   0  0  0  0  0  0  0  0  0  0  0  0
   -1.3752    0.9438   14.1860 N   0  0  0  0  0  0  0  0  0  0  0  0
   -2.7094    1.0104   14.0712 C   0  0  0  0  0  0  0  0  0  0  0  0
   -3.6503   -0.0985   14.2604 C   0  0  0  0  0  0  0  0  0  0  0  0
   -3.0167   -1.3978   14.1985 N   0  0  0  0  0  0  0  0  0  0  0  0
   -3.3464   -2.0113   12.9240 C   0  0  0  0  0  0  0  0  0  0  0  0
   -1.5979   -1.3390   14.3515 C   0  0  0  0  0  0  0  0  0  0  0  0
   -2.2097    4.8501   12.7776 C   0  0  0  0  0  0  0  0  0  0  0  0
   -2.4850    5.0268   14.1303 C   0  0  0  0  0  0  0  0  0  0  0  0
   -1.6428    5.7530   14.9489 C   0  0  0  0  0  0  0  0  0  0  0  0
   -0.4936    6.3330   14.4587 C   0  0  0  0  0  0  0  0  0  0  0  0
   -0.2079    6.1664   13.1213 C   0  0  0  0  0  0  0  0  0  0  0  0
   -1.0581    5.4365   12.3075 C   0  0  0  0  0  0  0  0  0  0  0  0
    0.3438    7.0503   15.2622 F   0  0  0  0  0  0  0  0  0  0  0  0
  1  2  1  0
  2  3  1  0
  3  4  2  0
  4  5  1  0
  5  6  2  0
  6  7  1  0
  7  8  2  0
  7  9  1  0
  9 10  1  0
  9 11  1  0
  9 12  1  0
  5 13  1  0
 13 14  1  0
 13 15  1  0
 13 16  1  0
  2 17  1  0
 17 18  1  0
 18 19  1  0
 19 20  1  0
 20 21  1  0
 21 22  1  0
 22 23  1  0
 20 24  1  0
 24 25  1  0
 25 26  2  0
 26 27  1  0
 27 28  1  0
 28 29  2  0
 29 30  1  0
 30 31  1  0
 31 32  1  0
 31 33  1  0
 19 34  1  0
 34 35  2  0
 35 36  1  0
 36 37  2  0
 37 38  1  0
 38 39  2  0
 37 40  1  0
  8  3  1  0
 23 18  1  0
 29 25  1  0
 39 34  1  0
M  END
$$$$
