
     RDKit          3D

 40 43  0  0  0  0  0  0  0  0999 V2000
   -5.3898    1.8872    5.6566 C   0  0  0  0  0  0  0  0  0  0  0  0
   -4.2493    2.6409    6.3529 C   0  0  0  0  0  0  0  0  0  0  0  0
   -2.9604    1.9948    5.9888 C   0  0  0  0  0  0  0  0  0  0  0  0
   -2.1270    2.5524    5.0383 C   0  0  0  0  0  0  0  0  0  0  0  0
   -0.9271    1.9679    4.6878 C   0  0  0  0  0  0  0  0  0  0  0  0
   -0.5418    0.7934    5.2997 C   0  0  0  0  0  0  0  0  0  0  0  0
   -1.3356    0.2065    6.2464 C   0  0  0  0  0  0  0  0  0  0  0  0
   -2.5248    0.8179    6.5700 C   0  0  0  0  0  0  0  0  0  0  0  0
   -0.9168   -1.0660    6.9100 C   0  0  0  0  0  0  0  0  0  0  0  0
    0.0070   -0.8197    7.9064 F   0  0  0  0  0  0  0  0  0  0  0  0
   -2.0305   -1.6188    7.5256 F   0  0  0  0  0  0  0  0  0  0  0  0
   -0.4605   -1.9789    5.9937 F   0  0  0  0  0  0  0  0  0  0  0  0
   -0.0506    2.5687    3.6764 C   0  0  0  0  0  0  0  0  0  0  0  0
   -0.0945    3.9554    3.7271 F   0  0  0  0  0  0  0  0  0  0  0  0
   -0.3548    2.1575    2.3936 F   0  0  0  0  0  0  0  0  0  0  0  0
    1.2691    2.2090    3.9559 F   0  0  0  0  0  0  0  0  0  0  0  0
   -4.5136    2.6192    7.6932 O   0  0  0  0  0  0  0  0  0  0  0  0
   -4.1802    3.7770    8.3882 C   0  0  0  0  0  0  0  0  0  0  0  0
   -3.8465    3.4379    9.8171 C   0  0  0  0  0  0  0  0  0  0  0  0
   -5.0027    3.4577   10.6206 N   0  0  0  0  0  0  0  0  0  0  0  0
   -6.2531    3.5241    9.9614 C   0  0  0  0  0  0  0  0  0  0  0  0
   -6.3205    4.5431    8.8573 C   0  0  0  0  0  0  0  0  0  0  0  0
   -5.1106    4.7791    8.2514 O   0  0  0  0  0  0  0  0  0  0  0  0
   -4.9519    2.9056   11.9066 C   0  0  0  0  0  0  0  0  0  0  0  0
   -4.4810    3.9588   12.8697 C   0  0  0  0  0  0  0  0  0  0  0  0
   -4.8029    5.2838   12.8240 N   0  0  0  0  0  0  0  0  0  0  0  0
   -4.2075    5.8950   13.8258 N   0  0  0  0  0  0  0  0  0  0  0  0
   -3.5141    5.0214   14.5177 N   0  0  0  0  0  0  0  0  0  0  0  0
   -3.6621    3.8147   13.9526 C   0  0  0  0  0  0  0  0  0  0  0  0
   -3.0537    2.5626   14.4144 C   0  0  0  0  0  0  0  0  0  0  0  0
   -2.5236    2.6506   15.7578 N   0  0  0  0  0  0  0  0  0  0  0  0
   -2.7822    1.3940   16.4386 C   0  0  0  0  0  0  0  0  0  0  0  0
   -1.1250    2.9377   15.7925 C   0  0  0  0  0  0  0  0  0  0  0  0
   -2.6908    4.1929   10.3466 C   0  0  0  0  0  0  0  0  0  0  0  0
   -2.6508    5.5827   10.4076 C   0  0  0  0  0  0  0  0  0  0  0  0
   -1.5502    6.2514   10.9061 C   0  0  0  0  0  0  0  0  0  0  0  0
   -0.4453    5.5684   11.3643 C   0  0  0  0  0  0  0  0  0  0  0  0
   -0.4706    4.1920   11.3104 C   0  0  0  0  0  0  0  0  0  0  0  0
   -1.5785    3.5294   10.8089 C   0  0  0  0  0  0  0  0  0  0  0  0
    0.6447    6.2226   11.8595 F   0  0  0  0  0  0  0  0  0  0  0  0
  1  2  1  0
  2  3  1  0
  3  4  2  0
  4  5  1  0
  5  6  2  0
  6  7  1  0
  7  8  2  0
  7  9  1  0
  9 10  1  0
  9 11  1  0
  9 12  1  0
  5 13  1  0
 13 14  1  0
 13 15  1  0
 13 16  1  0
  2 17  1  0
 17 18  1  0
 18 19  1  0
 19 20  1  0
 20 21  1  0
 21 22  1  0
 22 23  1  0
 20 24  1  0
 24 25  1  0
 25 26  2  0
 26 27  1  0
 27 28  1  0
 28 29  2  0
 29 30  1  0
 30 31  1  0
 31 32  1  0
 31 33  1  0
 19 34  1  0
 34 35  2  0
 35 36  1  0
 36 37  2  0
 37 38  1  0
 38 39  2  0
 37 40  1  0
  8  3  1  0
 23 18  1  0
 29 25  1  0
 39 34  1  0
M  END
$$$$
