
     RDKit          3D

 40 43  0  0  0  0  0  0  0  0999 V2000
   -2.1327    3.1316    5.0348 C   0  0  0  0  0  0  0  0  0  0  0  0
   -2.0706    2.9246    6.5537 C   0  0  0  0  0  0  0  0  0  0  0  0
   -0.9223    2.0329    6.8656 C   0  0  0  0  0  0  0  0  0  0  0  0
   -0.0066    2.3659    7.8452 C   0  0  0  0  0  0  0  0  0  0  0  0
    1.0647    1.5509    8.1491 C   0  0  0  0  0  0  0  0  0  0  0  0
    1.2328    0.3683    7.4596 C   0  0  0  0  0  0  0  0  0  0  0  0
    0.3503   -0.0013    6.4821 C   0  0  0  0  0  0  0  0  0  0  0  0
   -0.7056    0.8365    6.2066 C   0  0  0  0  0  0  0  0  0  0  0  0
    0.5325   -1.2839    5.7359 C   0  0  0  0  0  0  0  0  0  0  0  0
   -0.6809   -1.7697    5.2903 F   0  0  0  0  0  0  0  0  0  0  0  0
    1.2967   -1.0223    4.6078 F   0  0  0  0  0  0  0  0  0  0  0  0
    1.2154   -2.2052    6.4882 F   0  0  0  0  0  0  0  0  0  0  0  0
    2.0312    1.9154    9.1908 C   0  0  0  0  0  0  0  0  0  0  0  0
    2.7990    3.0076    8.8099 F   0  0  0  0  0  0  0  0  0  0  0  0
    2.8717    0.8728    9.5282 F   0  0  0  0  0  0  0  0  0  0  0  0
    1.3320    2.3086   10.3334 F   0  0  0  0  0  0  0  0  0  0  0  0
   -3.2791    2.4169    6.9391 O   0  0  0  0  0  0  0  0  0  0  0  0
   -4.2067    3.3521    7.3856 C   0  0  0  0  0  0  0  0  0  0  0  0
   -4.2067    3.3944    8.8911 C   0  0  0  0  0  0  0  0  0  0  0  0
   -5.1118    2.4539    9.4193 N   0  0  0  0  0  0  0  0  0  0  0  0
   -5.6479    1.4940    8.5284 C   0  0  0  0  0  0  0  0  0  0  0  0
   -6.1277    2.0598    7.2201 C   0  0  0  0  0  0  0  0  0  0  0  0
   -5.4524    3.1900    6.8284 O   0  0  0  0  0  0  0  0  0  0  0  0
   -5.0588    2.1450   10.7842 C   0  0  0  0  0  0  0  0  0  0  0  0
   -3.6495    2.3327   11.2709 C   0  0  0  0  0  0  0  0  0  0  0  0
   -2.9453    3.5011   11.2468 N   0  0  0  0  0  0  0  0  0  0  0  0
   -1.7508    3.2816   11.7534 N   0  0  0  0  0  0  0  0  0  0  0  0
   -1.6524    2.0207   12.1043 N   0  0  0  0  0  0  0  0  0  0  0  0
   -2.8095    1.4064   11.8191 C   0  0  0  0  0  0  0  0  0  0  0  0
   -3.1190   -0.0078   12.0539 C   0  0  0  0  0  0  0  0  0  0  0  0
   -1.9486   -0.8023   12.3579 N   0  0  0  0  0  0  0  0  0  0  0  0
   -1.3322   -1.2120   11.1083 C   0  0  0  0  0  0  0  0  0  0  0  0
   -0.9924   -0.1098   13.1616 C   0  0  0  0  0  0  0  0  0  0  0  0
   -4.3172    4.7622    9.4414 C   0  0  0  0  0  0  0  0  0  0  0  0
   -5.3830    5.1830   10.2313 C   0  0  0  0  0  0  0  0  0  0  0  0
   -5.4513    6.4714   10.7235 C   0  0  0  0  0  0  0  0  0  0  0  0
   -4.4653    7.3941   10.4522 C   0  0  0  0  0  0  0  0  0  0  0  0
   -3.4037    6.9917    9.6716 C   0  0  0  0  0  0  0  0  0  0  0  0
   -3.3431    5.6977    9.1820 C   0  0  0  0  0  0  0  0  0  0  0  0
   -4.5257    8.6680   10.9366 F   0  0  0  0  0  0  0  0  0  0  0  0
  1  2  1  0
  2  3  1  0
  3  4  2  0
  4  5  1  0
  5  6  2  0
  6  7  1  0
  7  8  2  0
  7  9  1  0
  9 10  1  0
  9 11  1  0
  9 12  1  0
  5 13  1  0
 13 14  1  0
 13 15  1  0
 13 16  1  0
  2 17  1  0
 17 18  1  0
 18 19  1  0
 19 20  1  0
 20 21  1  0
 21 22  1  0
 22 23  1  0
 20 24  1  0
 24 25  1  0
 25 26  2  0
 26 27  1  0
 27 28  1  0
 28 29  2  0
 29 30  1  0
 30 31  1  0
 31 32  1  0
 31 33  1  0
 19 34  1  0
 34 35  2  0
 35 36  1  0
 36 37  2  0
 37 38  1  0
 38 39  2  0
 37 40  1  0
  8  3  1  0
 23 18  1  0
 29 25  1  0
 39 34  1  0
M  END
$$$$
