
     RDKit          3D

 40 43  0  0  0  0  0  0  0  0999 V2000
   -5.3198    1.5816    5.6472 C   0  0  0  0  0  0  0  0  0  0  0  0
   -4.5872    2.6445    6.4762 C   0  0  0  0  0  0  0  0  0  0  0  0
   -3.1250    2.3871    6.3941 C   0  0  0  0  0  0  0  0  0  0  0  0
   -2.4206    2.6403    5.2327 C   0  0  0  0  0  0  0  0  0  0  0  0
   -1.0636    2.4084    5.1379 C   0  0  0  0  0  0  0  0  0  0  0  0
   -0.3839    1.9099    6.2296 C   0  0  0  0  0  0  0  0  0  0  0  0
   -1.0410    1.6450    7.3996 C   0  0  0  0  0  0  0  0  0  0  0  0
   -2.3938    1.8885    7.4569 C   0  0  0  0  0  0  0  0  0  0  0  0
   -0.3035    1.1056    8.5828 C   0  0  0  0  0  0  0  0  0  0  0  0
   -0.4843    1.9165    9.6860 F   0  0  0  0  0  0  0  0  0  0  0  0
   -0.8456   -0.1308    8.9027 F   0  0  0  0  0  0  0  0  0  0  0  0
    1.0232    0.9089    8.2956 F   0  0  0  0  0  0  0  0  0  0  0  0
   -0.3263    2.6803    3.8990 C   0  0  0  0  0  0  0  0  0  0  0  0
   -1.1876    2.8487    2.8233 F   0  0  0  0  0  0  0  0  0  0  0  0
    0.5858    1.6899    3.5919 F   0  0  0  0  0  0  0  0  0  0  0  0
    0.3611    3.8870    4.0420 F   0  0  0  0  0  0  0  0  0  0  0  0
   -5.0851    2.5759    7.7466 O   0  0  0  0  0  0  0  0  0  0  0  0
   -5.1432    3.7841    8.4332 C   0  0  0  0  0  0  0  0  0  0  0  0
   -4.2315    3.7363    9.6310 C   0  0  0  0  0  0  0  0  0  0  0  0
   -4.9078    3.2267   10.7561 N   0  0  0  0  0  0  0  0  0  0  0  0
   -6.1717    2.6278   10.5405 C   0  0  0  0  0  0  0  0  0  0  0  0
   -7.0882    3.4154    9.6451 C   0  0  0  0  0  0  0  0  0  0  0  0
   -6.4262    4.1847    8.7195 O   0  0  0  0  0  0  0  0  0  0  0  0
   -4.1698    2.8460   11.8837 C   0  0  0  0  0  0  0  0  0  0  0  0
   -3.8261    4.0749   12.6775 C   0  0  0  0  0  0  0  0  0  0  0  0
   -4.6774    5.1000   12.9708 N   0  0  0  0  0  0  0  0  0  0  0  0
   -4.0258    5.9967   13.6799 N   0  0  0  0  0  0  0  0  0  0  0  0
   -2.7890    5.5951   13.8579 N   0  0  0  0  0  0  0  0  0  0  0  0
   -2.6331    4.4102   13.2504 C   0  0  0  0  0  0  0  0  0  0  0  0
   -1.4014    3.6150   13.2084 C   0  0  0  0  0  0  0  0  0  0  0  0
   -0.4581    3.9739   14.2451 N   0  0  0  0  0  0  0  0  0  0  0  0
    0.6533    4.6804   13.6327 C   0  0  0  0  0  0  0  0  0  0  0  0
   -1.0333    4.7810   15.2734 C   0  0  0  0  0  0  0  0  0  0  0  0
   -3.4850    4.9931    9.8529 C   0  0  0  0  0  0  0  0  0  0  0  0
   -2.1001    5.0860    9.7506 C   0  0  0  0  0  0  0  0  0  0  0  0
   -1.4392    6.2785    9.9694 C   0  0  0  0  0  0  0  0  0  0  0  0
   -2.1252    7.4268   10.2981 C   0  0  0  0  0  0  0  0  0  0  0  0
   -3.4968    7.3501   10.4027 C   0  0  0  0  0  0  0  0  0  0  0  0
   -4.1517    6.1500   10.1817 C   0  0  0  0  0  0  0  0  0  0  0  0
   -1.4786    8.6086   10.5139 F   0  0  0  0  0  0  0  0  0  0  0  0
  1  2  1  0
  2  3  1  0
  3  4  2  0
  4  5  1  0
  5  6  2  0
  6  7  1  0
  7  8  2  0
  7  9  1  0
  9 10  1  0
  9 11  1  0
  9 12  1  0
  5 13  1  0
 13 14  1  0
 13 15  1  0
 13 16  1  0
  2 17  1  0
 17 18  1  0
 18 19  1  0
 19 20  1  0
 20 21  1  0
 21 22  1  0
 22 23  1  0
 20 24  1  0
 24 25  1  0
 25 26  2  0
 26 27  1  0
 27 28  1  0
 28 29  2  0
 29 30  1  0
 30 31  1  0
 31 32  1  0
 31 33  1  0
 19 34  1  0
 34 35  2  0
 35 36  1  0
 36 37  2  0
 37 38  1  0
 38 39  2  0
 37 40  1  0
  8  3  1  0
 23 18  1  0
 29 25  1  0
 39 34  1  0
M  END
$$$$
