
     RDKit          3D

 40 43  0  0  0  0  0  0  0  0999 V2000
   -5.4501    1.9439    6.7100 C   0  0  0  0  0  0  0  0  0  0  0  0
   -4.3540    2.9466    7.0933 C   0  0  0  0  0  0  0  0  0  0  0  0
   -3.1148    2.6053    6.3455 C   0  0  0  0  0  0  0  0  0  0  0  0
   -2.8977    3.0857    5.0684 C   0  0  0  0  0  0  0  0  0  0  0  0
   -1.7538    2.7804    4.3593 C   0  0  0  0  0  0  0  0  0  0  0  0
   -0.7952    1.9734    4.9355 C   0  0  0  0  0  0  0  0  0  0  0  0
   -0.9684    1.4759    6.1978 C   0  0  0  0  0  0  0  0  0  0  0  0
   -2.1212    1.8015    6.8742 C   0  0  0  0  0  0  0  0  0  0  0  0
    0.0717    0.6021    6.8220 C   0  0  0  0  0  0  0  0  0  0  0  0
   -0.1339    0.4889    8.1829 F   0  0  0  0  0  0  0  0  0  0  0  0
   -0.0599   -0.6728    6.2907 F   0  0  0  0  0  0  0  0  0  0  0  0
    1.3362    1.0414    6.5234 F   0  0  0  0  0  0  0  0  0  0  0  0
   -1.5346    3.2957    3.0034 C   0  0  0  0  0  0  0  0  0  0  0  0
   -0.1859    3.5129    2.7557 F   0  0  0  0  0  0  0  0  0  0  0  0
   -2.2291    4.4636    2.7569 F   0  0  0  0  0  0  0  0  0  0  0  0
   -1.9502    2.3305    2.0843 F   0  0  0  0  0  0  0  0  0  0  0  0
   -4.2097    2.8839    8.4504 O   0  0  0  0  0  0  0  0  0  0  0  0
   -3.1229    3.5792    8.9700 C   0  0  0  0  0  0  0  0  0  0  0  0
   -3.0485    3.3732   10.4600 C   0  0  0  0  0  0  0  0  0  0  0  0
   -3.8124    4.3418   11.1391 N   0  0  0  0  0  0  0  0  0  0  0  0
   -4.6881    5.1404   10.3659 C   0  0  0  0  0  0  0  0  0  0  0  0
   -4.0786    5.6902    9.1057 C   0  0  0  0  0  0  0  0  0  0  0  0
   -3.0862    4.8973    8.5827 O   0  0  0  0  0  0  0  0  0  0  0  0
   -4.0960    4.1598   12.4984 C   0  0  0  0  0  0  0  0  0  0  0  0
   -5.5611    4.4047   12.7265 C   0  0  0  0  0  0  0  0  0  0  0  0
   -6.5800    3.9280   11.9545 N   0  0  0  0  0  0  0  0  0  0  0  0
   -7.7206    4.3466   12.4599 N   0  0  0  0  0  0  0  0  0  0  0  0
   -7.4827    5.0739   13.5262 N   0  0  0  0  0  0  0  0  0  0  0  0
   -6.1570    5.1294   13.7183 C   0  0  0  0  0  0  0  0  0  0  0  0
   -5.4687    5.8410   14.8004 C   0  0  0  0  0  0  0  0  0  0  0  0
   -6.3569    6.2474   15.8678 N   0  0  0  0  0  0  0  0  0  0  0  0
   -5.9517    5.5711   17.0875 C   0  0  0  0  0  0  0  0  0  0  0  0
   -6.3691    7.6594   16.0819 C   0  0  0  0  0  0  0  0  0  0  0  0
   -1.6698    3.1852   10.9600 C   0  0  0  0  0  0  0  0  0  0  0  0
   -1.2964    2.1328   11.7906 C   0  0  0  0  0  0  0  0  0  0  0  0
    0.0021    1.9942   12.2396 C   0  0  0  0  0  0  0  0  0  0  0  0
    0.9823    2.8936   11.8826 C   0  0  0  0  0  0  0  0  0  0  0  0
    0.6275    3.9406   11.0604 C   0  0  0  0  0  0  0  0  0  0  0  0
   -0.6771    4.0721   10.6147 C   0  0  0  0  0  0  0  0  0  0  0  0
    2.2674    2.7617   12.3213 F   0  0  0  0  0  0  0  0  0  0  0  0
  1  2  1  0
  2  3  1  0
  3  4  2  0
  4  5  1  0
  5  6  2  0
  6  7  1  0
  7  8  2  0
  7  9  1  0
  9 10  1  0
  9 11  1  0
  9 12  1  0
  5 13  1  0
 13 14  1  0
 13 15  1  0
 13 16  1  0
  2 17  1  0
 17 18  1  0
 18 19  1  0
 19 20  1  0
 20 21  1  0
 21 22  1  0
 22 23  1  0
 20 24  1  0
 24 25  1  0
 25 26  2  0
 26 27  1  0
 27 28  1  0
 28 29  2  0
 29 30  1  0
 30 31  1  0
 31 32  1  0
 31 33  1  0
 19 34  1  0
 34 35  2  0
 35 36  1  0
 36 37  2  0
 37 38  1  0
 38 39  2  0
 37 40  1  0
  8  3  1  0
 23 18  1  0
 29 25  1  0
 39 34  1  0
M  END
$$$$
