
     RDKit          3D

 40 43  0  0  0  0  0  0  0  0999 V2000
   -3.0585    2.5620    3.8345 C   0  0  0  0  0  0  0  0  0  0  0  0
   -2.5657    2.6855    5.2821 C   0  0  0  0  0  0  0  0  0  0  0  0
   -1.6053    1.5831    5.5533 C   0  0  0  0  0  0  0  0  0  0  0  0
   -0.2634    1.7165    5.2526 C   0  0  0  0  0  0  0  0  0  0  0  0
    0.6427    0.7050    5.4977 C   0  0  0  0  0  0  0  0  0  0  0  0
    0.2036   -0.4760    6.0587 C   0  0  0  0  0  0  0  0  0  0  0  0
   -1.1160   -0.6515    6.3727 C   0  0  0  0  0  0  0  0  0  0  0  0
   -1.9901    0.3789    6.1141 C   0  0  0  0  0  0  0  0  0  0  0  0
   -1.5909   -1.9315    6.9818 C   0  0  0  0  0  0  0  0  0  0  0  0
   -0.6618   -2.4243    7.8768 F   0  0  0  0  0  0  0  0  0  0  0  0
   -2.7420   -1.6631    7.7082 F   0  0  0  0  0  0  0  0  0  0  0  0
   -1.9202   -2.8499    6.0178 F   0  0  0  0  0  0  0  0  0  0  0  0
    2.0652    0.8577    5.1734 C   0  0  0  0  0  0  0  0  0  0  0  0
    2.2961    0.6898    3.8148 F   0  0  0  0  0  0  0  0  0  0  0  0
    2.8703   -0.0170    5.8761 F   0  0  0  0  0  0  0  0  0  0  0  0
    2.4569    2.1627    5.4781 F   0  0  0  0  0  0  0  0  0  0  0  0
   -3.6704    2.6598    6.0856 O   0  0  0  0  0  0  0  0  0  0  0  0
   -3.8448    3.7738    6.8999 C   0  0  0  0  0  0  0  0  0  0  0  0
   -3.6261    3.3938    8.3407 C   0  0  0  0  0  0  0  0  0  0  0  0
   -4.8256    2.9509    8.9304 N   0  0  0  0  0  0  0  0  0  0  0  0
   -5.9184    2.6928    8.0692 C   0  0  0  0  0  0  0  0  0  0  0  0
   -6.1619    3.7593    7.0371 C   0  0  0  0  0  0  0  0  0  0  0  0
   -5.0257    4.4369    6.6671 O   0  0  0  0  0  0  0  0  0  0  0  0
   -4.7791    2.2972   10.1680 C   0  0  0  0  0  0  0  0  0  0  0  0
   -4.9506    3.3136   11.2615 C   0  0  0  0  0  0  0  0  0  0  0  0
   -5.9164    4.2759   11.3130 N   0  0  0  0  0  0  0  0  0  0  0  0
   -5.7516    4.9773   12.4141 N   0  0  0  0  0  0  0  0  0  0  0  0
   -4.7202    4.5094   13.0773 N   0  0  0  0  0  0  0  0  0  0  0  0
   -4.2025    3.4803   12.3914 C   0  0  0  0  0  0  0  0  0  0  0  0
   -3.0403    2.6763   12.7838 C   0  0  0  0  0  0  0  0  0  0  0  0
   -2.7212    2.7884   14.1906 N   0  0  0  0  0  0  0  0  0  0  0  0
   -2.2094    1.5094   14.6506 C   0  0  0  0  0  0  0  0  0  0  0  0
   -1.7700    3.8162   14.4710 C   0  0  0  0  0  0  0  0  0  0  0  0
   -2.8763    4.4097    9.1100 C   0  0  0  0  0  0  0  0  0  0  0  0
   -1.6054    4.1871    9.6315 C   0  0  0  0  0  0  0  0  0  0  0  0
   -0.9391    5.1612   10.3484 C   0  0  0  0  0  0  0  0  0  0  0  0
   -1.5066    6.3954   10.5766 C   0  0  0  0  0  0  0  0  0  0  0  0
   -2.7644    6.6304   10.0661 C   0  0  0  0  0  0  0  0  0  0  0  0
   -3.4256    5.6477    9.3483 C   0  0  0  0  0  0  0  0  0  0  0  0
   -0.8533    7.3629   11.2825 F   0  0  0  0  0  0  0  0  0  0  0  0
  1  2  1  0
  2  3  1  0
  3  4  2  0
  4  5  1  0
  5  6  2  0
  6  7  1  0
  7  8  2  0
  7  9  1  0
  9 10  1  0
  9 11  1  0
  9 12  1  0
  5 13  1  0
 13 14  1  0
 13 15  1  0
 13 16  1  0
  2 17  1  0
 17 18  1  0
 18 19  1  0
 19 20  1  0
 20 21  1  0
 21 22  1  0
 22 23  1  0
 20 24  1  0
 24 25  1  0
 25 26  2  0
 26 27  1  0
 27 28  1  0
 28 29  2  0
 29 30  1  0
 30 31  1  0
 31 32  1  0
 31 33  1  0
 19 34  1  0
 34 35  2  0
 35 36  1  0
 36 37  2  0
 37 38  1  0
 38 39  2  0
 37 40  1  0
  8  3  1  0
 23 18  1  0
 29 25  1  0
 39 34  1  0
M  END
$$$$
