
     RDKit          3D

 40 43  0  0  0  0  0  0  0  0999 V2000
   -5.4224    1.4319    6.2648 C   0  0  0  0  0  0  0  0  0  0  0  0
   -4.0920    2.1780    6.4296 C   0  0  0  0  0  0  0  0  0  0  0  0
   -2.9880    1.1822    6.4531 C   0  0  0  0  0  0  0  0  0  0  0  0
   -2.3369    0.8122    5.2920 C   0  0  0  0  0  0  0  0  0  0  0  0
   -1.3099   -0.1095    5.2941 C   0  0  0  0  0  0  0  0  0  0  0  0
   -0.9164   -0.6821    6.4856 C   0  0  0  0  0  0  0  0  0  0  0  0
   -1.5328   -0.3450    7.6591 C   0  0  0  0  0  0  0  0  0  0  0  0
   -2.5527    0.5774    7.6182 C   0  0  0  0  0  0  0  0  0  0  0  0
   -1.1050   -0.9652    8.9504 C   0  0  0  0  0  0  0  0  0  0  0  0
   -1.2553   -2.3374    8.9100 F   0  0  0  0  0  0  0  0  0  0  0  0
    0.2492   -0.7166    9.1211 F   0  0  0  0  0  0  0  0  0  0  0  0
   -1.7617   -0.4026   10.0150 F   0  0  0  0  0  0  0  0  0  0  0  0
   -0.6264   -0.4954    4.0547 C   0  0  0  0  0  0  0  0  0  0  0  0
   -0.8006   -1.8448    3.7789 F   0  0  0  0  0  0  0  0  0  0  0  0
    0.7255   -0.2143    4.0804 F   0  0  0  0  0  0  0  0  0  0  0  0
   -1.2033    0.1989    2.9897 F   0  0  0  0  0  0  0  0  0  0  0  0
   -4.1865    2.9184    7.5740 O   0  0  0  0  0  0  0  0  0  0  0  0
   -3.1436    3.8112    7.7975 C   0  0  0  0  0  0  0  0  0  0  0  0
   -2.5808    3.6051    9.1792 C   0  0  0  0  0  0  0  0  0  0  0  0
   -3.2685    4.3915   10.1233 N   0  0  0  0  0  0  0  0  0  0  0  0
   -4.4718    5.0077    9.7053 C   0  0  0  0  0  0  0  0  0  0  0  0
   -4.3904    5.6850    8.3650 C   0  0  0  0  0  0  0  0  0  0  0  0
   -3.4748    5.1146    7.5146 O   0  0  0  0  0  0  0  0  0  0  0  0
   -3.0843    4.1387   11.4884 C   0  0  0  0  0  0  0  0  0  0  0  0
   -3.5996    5.3117   12.2740 C   0  0  0  0  0  0  0  0  0  0  0  0
   -3.0187    6.5443   12.3421 N   0  0  0  0  0  0  0  0  0  0  0  0
   -3.7508    7.3106   13.1221 N   0  0  0  0  0  0  0  0  0  0  0  0
   -4.7807    6.6260   13.5615 N   0  0  0  0  0  0  0  0  0  0  0  0
   -4.7166    5.3861   13.0555 C   0  0  0  0  0  0  0  0  0  0  0  0
   -5.6748    4.3024   13.2974 C   0  0  0  0  0  0  0  0  0  0  0  0
   -6.9925    4.7794   13.6574 N   0  0  0  0  0  0  0  0  0  0  0  0
   -7.9452    4.2845   12.6792 C   0  0  0  0  0  0  0  0  0  0  0  0
   -7.3965    4.3793   14.9675 C   0  0  0  0  0  0  0  0  0  0  0  0
   -1.1058    3.6916    9.2327 C   0  0  0  0  0  0  0  0  0  0  0  0
   -0.2646    2.7528    8.6428 C   0  0  0  0  0  0  0  0  0  0  0  0
    1.1094    2.8672    8.7185 C   0  0  0  0  0  0  0  0  0  0  0  0
    1.7044    3.9175    9.3820 C   0  0  0  0  0  0  0  0  0  0  0  0
    0.8842    4.8549    9.9707 C   0  0  0  0  0  0  0  0  0  0  0  0
   -0.4929    4.7325    9.8900 C   0  0  0  0  0  0  0  0  0  0  0  0
    3.0612    4.0375    9.4592 F   0  0  0  0  0  0  0  0  0  0  0  0
  1  2  1  0
  2  3  1  0
  3  4  2  0
  4  5  1  0
  5  6  2  0
  6  7  1  0
  7  8  2  0
  7  9  1  0
  9 10  1  0
  9 11  1  0
  9 12  1  0
  5 13  1  0
 13 14  1  0
 13 15  1  0
 13 16  1  0
  2 17  1  0
 17 18  1  0
 18 19  1  0
 19 20  1  0
 20 21  1  0
 21 22  1  0
 22 23  1  0
 20 24  1  0
 24 25  1  0
 25 26  2  0
 26 27  1  0
 27 28  1  0
 28 29  2  0
 29 30  1  0
 30 31  1  0
 31 32  1  0
 31 33  1  0
 19 34  1  0
 34 35  2  0
 35 36  1  0
 36 37  2  0
 37 38  1  0
 38 39  2  0
 37 40  1  0
  8  3  1  0
 23 18  1  0
 29 25  1  0
 39 34  1  0
M  END
$$$$
