
     RDKit          3D

 40 43  0  0  0  0  0  0  0  0999 V2000
   -1.7118   -1.5138    8.1198 C   0  0  0  0  0  0  0  0  0  0  0  0
   -2.4057   -0.1654    8.3521 C   0  0  0  0  0  0  0  0  0  0  0  0
   -2.0508    0.7506    7.2358 C   0  0  0  0  0  0  0  0  0  0  0  0
   -3.0195    1.2442    6.3832 C   0  0  0  0  0  0  0  0  0  0  0  0
   -2.7095    2.0957    5.3425 C   0  0  0  0  0  0  0  0  0  0  0  0
   -1.3972    2.4694    5.1414 C   0  0  0  0  0  0  0  0  0  0  0  0
   -0.4057    2.0051    5.9614 C   0  0  0  0  0  0  0  0  0  0  0  0
   -0.7525    1.1580    6.9883 C   0  0  0  0  0  0  0  0  0  0  0  0
    1.0164    2.4115    5.7434 C   0  0  0  0  0  0  0  0  0  0  0  0
    1.1258    3.7848    5.6474 F   0  0  0  0  0  0  0  0  0  0  0  0
    1.7502    2.0292    6.8571 F   0  0  0  0  0  0  0  0  0  0  0  0
    1.5567    1.7710    4.6576 F   0  0  0  0  0  0  0  0  0  0  0  0
   -3.7466    2.6128    4.4429 C   0  0  0  0  0  0  0  0  0  0  0  0
   -3.2914    3.7079    3.7212 F   0  0  0  0  0  0  0  0  0  0  0  0
   -4.9042    2.9648    5.1086 F   0  0  0  0  0  0  0  0  0  0  0  0
   -4.0575    1.6277    3.5038 F   0  0  0  0  0  0  0  0  0  0  0  0
   -2.0065    0.2851    9.5786 O   0  0  0  0  0  0  0  0  0  0  0  0
   -2.9555    1.0153   10.2864 C   0  0  0  0  0  0  0  0  0  0  0  0
   -2.5700    2.4711   10.3070 C   0  0  0  0  0  0  0  0  0  0  0  0
   -1.7380    2.7542   11.4072 N   0  0  0  0  0  0  0  0  0  0  0  0
   -1.2086    1.6546   12.1236 C   0  0  0  0  0  0  0  0  0  0  0  0
   -2.2105    0.5789   12.4410 C   0  0  0  0  0  0  0  0  0  0  0  0
   -3.2310    0.4897   11.5259 O   0  0  0  0  0  0  0  0  0  0  0  0
   -1.0526    3.9746   11.4506 C   0  0  0  0  0  0  0  0  0  0  0  0
   -1.1005    4.5096   12.8541 C   0  0  0  0  0  0  0  0  0  0  0  0
   -0.1932    4.2493   13.8392 N   0  0  0  0  0  0  0  0  0  0  0  0
   -0.5618    4.8886   14.9288 N   0  0  0  0  0  0  0  0  0  0  0  0
   -1.6692    5.5514   14.6902 N   0  0  0  0  0  0  0  0  0  0  0  0
   -2.0287    5.3381   13.4163 C   0  0  0  0  0  0  0  0  0  0  0  0
   -3.2080    5.8950   12.7454 C   0  0  0  0  0  0  0  0  0  0  0  0
   -3.7191    7.0851   13.3902 N   0  0  0  0  0  0  0  0  0  0  0  0
   -3.7093    8.1718   12.4267 C   0  0  0  0  0  0  0  0  0  0  0  0
   -5.0372    6.9184   13.9141 C   0  0  0  0  0  0  0  0  0  0  0  0
   -3.7169    3.3861   10.1246 C   0  0  0  0  0  0  0  0  0  0  0  0
   -4.7451    3.5152   11.0536 C   0  0  0  0  0  0  0  0  0  0  0  0
   -5.8019    4.3791   10.8445 C   0  0  0  0  0  0  0  0  0  0  0  0
   -5.8812    5.1498    9.7056 C   0  0  0  0  0  0  0  0  0  0  0  0
   -4.8703    5.0328    8.7769 C   0  0  0  0  0  0  0  0  0  0  0  0
   -3.8141    4.1639    8.9946 C   0  0  0  0  0  0  0  0  0  0  0  0
   -6.9216    6.0064    9.4934 F   0  0  0  0  0  0  0  0  0  0  0  0
  1  2  1  0
  2  3  1  0
  3  4  2  0
  4  5  1  0
  5  6  2  0
  6  7  1  0
  7  8  2  0
  7  9  1  0
  9 10  1  0
  9 11  1  0
  9 12  1  0
  5 13  1  0
 13 14  1  0
 13 15  1  0
 13 16  1  0
  2 17  1  0
 17 18  1  0
 18 19  1  0
 19 20  1  0
 20 21  1  0
 21 22  1  0
 22 23  1  0
 20 24  1  0
 24 25  1  0
 25 26  2  0
 26 27  1  0
 27 28  1  0
 28 29  2  0
 29 30  1  0
 30 31  1  0
 31 32  1  0
 31 33  1  0
 19 34  1  0
 34 35  2  0
 35 36  1  0
 36 37  2  0
 37 38  1  0
 38 39  2  0
 37 40  1  0
  8  3  1  0
 23 18  1  0
 29 25  1  0
 39 34  1  0
M  END
$$$$
