
     RDKit          3D

 40 43  0  0  0  0  0  0  0  0999 V2000
   -1.2640    0.3898    6.7302 C   0  0  0  0  0  0  0  0  0  0  0  0
   -0.2428    1.2003    7.5389 C   0  0  0  0  0  0  0  0  0  0  0  0
    1.0764    0.5187    7.4583 C   0  0  0  0  0  0  0  0  0  0  0  0
    1.5869    0.0947    6.2465 C   0  0  0  0  0  0  0  0  0  0  0  0
    2.8093   -0.5387    6.1520 C   0  0  0  0  0  0  0  0  0  0  0  0
    3.5484   -0.7582    7.2955 C   0  0  0  0  0  0  0  0  0  0  0  0
    3.0818   -0.3549    8.5164 C   0  0  0  0  0  0  0  0  0  0  0  0
    1.8591    0.2732    8.5718 C   0  0  0  0  0  0  0  0  0  0  0  0
    3.8840   -0.5923    9.7554 C   0  0  0  0  0  0  0  0  0  0  0  0
    3.9598    0.5558   10.5191 F   0  0  0  0  0  0  0  0  0  0  0  0
    3.2226   -1.5399   10.5231 F   0  0  0  0  0  0  0  0  0  0  0  0
    5.1230   -1.0994    9.4572 F   0  0  0  0  0  0  0  0  0  0  0  0
    3.3409   -0.9854    4.8596 C   0  0  0  0  0  0  0  0  0  0  0  0
    3.3069    0.0342    3.9180 F   0  0  0  0  0  0  0  0  0  0  0  0
    2.6699   -2.0825    4.3564 F   0  0  0  0  0  0  0  0  0  0  0  0
    4.6857   -1.3239    5.0209 F   0  0  0  0  0  0  0  0  0  0  0  0
   -0.7295    1.3032    8.8113 O   0  0  0  0  0  0  0  0  0  0  0  0
   -2.1143    1.3779    8.9186 C   0  0  0  0  0  0  0  0  0  0  0  0
   -2.5175    2.7488    9.3944 C   0  0  0  0  0  0  0  0  0  0  0  0
   -2.5470    2.8029   10.8012 N   0  0  0  0  0  0  0  0  0  0  0  0
   -1.9743    1.7184   11.5071 C   0  0  0  0  0  0  0  0  0  0  0  0
   -2.3692    0.3624   10.9902 C   0  0  0  0  0  0  0  0  0  0  0  0
   -2.6586    0.3479    9.6475 O   0  0  0  0  0  0  0  0  0  0  0  0
   -2.6266    4.0484   11.4365 C   0  0  0  0  0  0  0  0  0  0  0  0
   -4.0725    4.3799   11.6772 C   0  0  0  0  0  0  0  0  0  0  0  0
   -5.0245    3.5158   12.1339 N   0  0  0  0  0  0  0  0  0  0  0  0
   -6.1690    4.1595   12.2195 N   0  0  0  0  0  0  0  0  0  0  0  0
   -5.9978    5.4035   11.8376 N   0  0  0  0  0  0  0  0  0  0  0  0
   -4.7124    5.5723   11.4958 C   0  0  0  0  0  0  0  0  0  0  0  0
   -4.1016    6.8153   11.0134 C   0  0  0  0  0  0  0  0  0  0  0  0
   -4.8793    7.9922   11.3348 N   0  0  0  0  0  0  0  0  0  0  0  0
   -5.0615    8.0453   12.7747 C   0  0  0  0  0  0  0  0  0  0  0  0
   -4.2770    9.2051   10.8810 C   0  0  0  0  0  0  0  0  0  0  0  0
   -3.7170    3.2793    8.7120 C   0  0  0  0  0  0  0  0  0  0  0  0
   -4.9386    2.6130    8.6885 C   0  0  0  0  0  0  0  0  0  0  0  0
   -6.0355    3.1406    8.0363 C   0  0  0  0  0  0  0  0  0  0  0  0
   -5.9648    4.3504    7.3815 C   0  0  0  0  0  0  0  0  0  0  0  0
   -4.7618    5.0217    7.3965 C   0  0  0  0  0  0  0  0  0  0  0  0
   -3.6667    4.4853    8.0530 C   0  0  0  0  0  0  0  0  0  0  0  0
   -7.0449    4.8782    6.7365 F   0  0  0  0  0  0  0  0  0  0  0  0
  1  2  1  0
  2  3  1  0
  3  4  2  0
  4  5  1  0
  5  6  2  0
  6  7  1  0
  7  8  2  0
  7  9  1  0
  9 10  1  0
  9 11  1  0
  9 12  1  0
  5 13  1  0
 13 14  1  0
 13 15  1  0
 13 16  1  0
  2 17  1  0
 17 18  1  0
 18 19  1  0
 19 20  1  0
 20 21  1  0
 21 22  1  0
 22 23  1  0
 20 24  1  0
 24 25  1  0
 25 26  2  0
 26 27  1  0
 27 28  1  0
 28 29  2  0
 29 30  1  0
 30 31  1  0
 31 32  1  0
 31 33  1  0
 19 34  1  0
 34 35  2  0
 35 36  1  0
 36 37  2  0
 37 38  1  0
 38 39  2  0
 37 40  1  0
  8  3  1  0
 23 18  1  0
 29 25  1  0
 39 34  1  0
M  END
$$$$
