
     RDKit          3D

 40 43  0  0  0  0  0  0  0  0999 V2000
   -5.2070    0.0048    6.9968 C   0  0  0  0  0  0  0  0  0  0  0  0
   -4.8033    1.4849    7.0060 C   0  0  0  0  0  0  0  0  0  0  0  0
   -3.4550    1.6138    6.3922 C   0  0  0  0  0  0  0  0  0  0  0  0
   -3.1058    2.7376    5.6682 C   0  0  0  0  0  0  0  0  0  0  0  0
   -1.8595    2.8754    5.0921 C   0  0  0  0  0  0  0  0  0  0  0  0
   -0.9304    1.8668    5.2389 C   0  0  0  0  0  0  0  0  0  0  0  0
   -1.2329    0.7368    5.9477 C   0  0  0  0  0  0  0  0  0  0  0  0
   -2.4853    0.6345    6.5078 C   0  0  0  0  0  0  0  0  0  0  0  0
   -0.2249   -0.3557    6.1073 C   0  0  0  0  0  0  0  0  0  0  0  0
   -0.3781   -0.9917    7.3235 F   0  0  0  0  0  0  0  0  0  0  0  0
   -0.4609   -1.3077    5.1261 F   0  0  0  0  0  0  0  0  0  0  0  0
    1.0510    0.1131    5.9243 F   0  0  0  0  0  0  0  0  0  0  0  0
   -1.5003    4.0730    4.3246 C   0  0  0  0  0  0  0  0  0  0  0  0
   -2.5902    4.9179    4.1641 F   0  0  0  0  0  0  0  0  0  0  0  0
   -0.9782    3.7743    3.0815 F   0  0  0  0  0  0  0  0  0  0  0  0
   -0.5471    4.7969    5.0433 F   0  0  0  0  0  0  0  0  0  0  0  0
   -4.8569    1.9072    8.3042 O   0  0  0  0  0  0  0  0  0  0  0  0
   -4.0347    2.9842    8.6182 C   0  0  0  0  0  0  0  0  0  0  0  0
   -3.8888    3.0980   10.1129 C   0  0  0  0  0  0  0  0  0  0  0  0
   -4.9097    3.9008   10.6569 N   0  0  0  0  0  0  0  0  0  0  0  0
   -5.9955    4.2346    9.8130 C   0  0  0  0  0  0  0  0  0  0  0  0
   -5.5957    4.6925    8.4374 C   0  0  0  0  0  0  0  0  0  0  0  0
   -4.4108    4.1526    8.0001 O   0  0  0  0  0  0  0  0  0  0  0  0
   -5.1127    3.9038   12.0425 C   0  0  0  0  0  0  0  0  0  0  0  0
   -4.4090    5.0925   12.6344 C   0  0  0  0  0  0  0  0  0  0  0  0
   -4.6832    6.4007   12.3606 N   0  0  0  0  0  0  0  0  0  0  0  0
   -3.8664    7.1565   13.0628 N   0  0  0  0  0  0  0  0  0  0  0  0
   -3.0753    6.3927   13.7793 N   0  0  0  0  0  0  0  0  0  0  0  0
   -3.3851    5.1109   13.5373 C   0  0  0  0  0  0  0  0  0  0  0  0
   -2.7400    3.9373   14.1352 C   0  0  0  0  0  0  0  0  0  0  0  0
   -3.2578    3.6110   15.4463 N   0  0  0  0  0  0  0  0  0  0  0  0
   -2.1400    3.2935   16.3175 C   0  0  0  0  0  0  0  0  0  0  0  0
   -4.0329    4.6632   16.0222 C   0  0  0  0  0  0  0  0  0  0  0  0
   -2.5158    3.4346   10.5461 C   0  0  0  0  0  0  0  0  0  0  0  0
   -1.7152    2.5687   11.2851 C   0  0  0  0  0  0  0  0  0  0  0  0
   -0.4383    2.9221   11.6742 C   0  0  0  0  0  0  0  0  0  0  0  0
    0.0959    4.1485   11.3457 C   0  0  0  0  0  0  0  0  0  0  0  0
   -0.6850    5.0162   10.6140 C   0  0  0  0  0  0  0  0  0  0  0  0
   -1.9647    4.6537   10.2280 C   0  0  0  0  0  0  0  0  0  0  0  0
    1.3573    4.5035   11.7254 F   0  0  0  0  0  0  0  0  0  0  0  0
  1  2  1  0
  2  3  1  0
  3  4  2  0
  4  5  1  0
  5  6  2  0
  6  7  1  0
  7  8  2  0
  7  9  1  0
  9 10  1  0
  9 11  1  0
  9 12  1  0
  5 13  1  0
 13 14  1  0
 13 15  1  0
 13 16  1  0
  2 17  1  0
 17 18  1  0
 18 19  1  0
 19 20  1  0
 20 21  1  0
 21 22  1  0
 22 23  1  0
 20 24  1  0
 24 25  1  0
 25 26  2  0
 26 27  1  0
 27 28  1  0
 28 29  2  0
 29 30  1  0
 30 31  1  0
 31 32  1  0
 31 33  1  0
 19 34  1  0
 34 35  2  0
 35 36  1  0
 36 37  2  0
 37 38  1  0
 38 39  2  0
 37 40  1  0
  8  3  1  0
 23 18  1  0
 29 25  1  0
 39 34  1  0
M  END
$$$$
