
     RDKit          3D

 40 43  0  0  0  0  0  0  0  0999 V2000
   -4.7876    0.4845    7.8280 C   0  0  0  0  0  0  0  0  0  0  0  0
   -4.5224    1.8790    7.2460 C   0  0  0  0  0  0  0  0  0  0  0  0
   -3.0912    1.9656    6.8519 C   0  0  0  0  0  0  0  0  0  0  0  0
   -2.5815    1.1759    5.8392 C   0  0  0  0  0  0  0  0  0  0  0  0
   -1.2566    1.2428    5.4593 C   0  0  0  0  0  0  0  0  0  0  0  0
   -0.4108    2.1209    6.1041 C   0  0  0  0  0  0  0  0  0  0  0  0
   -0.8726    2.9219    7.1120 C   0  0  0  0  0  0  0  0  0  0  0  0
   -2.1993    2.8276    7.4636 C   0  0  0  0  0  0  0  0  0  0  0  0
    0.0446    3.8742    7.8098 C   0  0  0  0  0  0  0  0  0  0  0  0
    1.3018    3.3233    7.9618 F   0  0  0  0  0  0  0  0  0  0  0  0
    0.1943    4.9960    7.0073 F   0  0  0  0  0  0  0  0  0  0  0  0
   -0.4860    4.2927    9.0034 F   0  0  0  0  0  0  0  0  0  0  0  0
   -0.7264    0.3986    4.3830 C   0  0  0  0  0  0  0  0  0  0  0  0
   -1.4697   -0.7651    4.2389 F   0  0  0  0  0  0  0  0  0  0  0  0
    0.5997    0.0626    4.5717 F   0  0  0  0  0  0  0  0  0  0  0  0
   -0.8414    1.0880    3.1744 F   0  0  0  0  0  0  0  0  0  0  0  0
   -4.8839    2.7874    8.2003 O   0  0  0  0  0  0  0  0  0  0  0  0
   -3.8621    3.2066    9.0458 C   0  0  0  0  0  0  0  0  0  0  0  0
   -4.3044    3.0889   10.4806 C   0  0  0  0  0  0  0  0  0  0  0  0
   -4.9477    4.2672   10.9055 N   0  0  0  0  0  0  0  0  0  0  0  0
   -5.2957    5.2137    9.9128 C   0  0  0  0  0  0  0  0  0  0  0  0
   -4.2061    5.4984    8.9161 C   0  0  0  0  0  0  0  0  0  0  0  0
   -3.3545    4.4398    8.7140 O   0  0  0  0  0  0  0  0  0  0  0  0
   -5.6705    4.2578   12.1049 C   0  0  0  0  0  0  0  0  0  0  0  0
   -5.0473    5.2403   13.0560 C   0  0  0  0  0  0  0  0  0  0  0  0
   -4.2971    6.3248   12.7058 N   0  0  0  0  0  0  0  0  0  0  0  0
   -3.9234    6.9484   13.8026 N   0  0  0  0  0  0  0  0  0  0  0  0
   -4.4001    6.3134   14.8476 N   0  0  0  0  0  0  0  0  0  0  0  0
   -5.0997    5.2525   14.4203 C   0  0  0  0  0  0  0  0  0  0  0  0
   -5.7973    4.2784   15.2662 C   0  0  0  0  0  0  0  0  0  0  0  0
   -6.2583    4.8402   16.5173 N   0  0  0  0  0  0  0  0  0  0  0  0
   -5.1058    5.0775   17.3686 C   0  0  0  0  0  0  0  0  0  0  0  0
   -6.9924    6.0540   16.3518 C   0  0  0  0  0  0  0  0  0  0  0  0
   -3.2487    2.5799   11.3820 C   0  0  0  0  0  0  0  0  0  0  0  0
   -3.2379    1.2838   11.8888 C   0  0  0  0  0  0  0  0  0  0  0  0
   -2.2351    0.8474   12.7318 C   0  0  0  0  0  0  0  0  0  0  0  0
   -1.2025    1.6788   13.1057 C   0  0  0  0  0  0  0  0  0  0  0  0
   -1.1998    2.9649   12.6116 C   0  0  0  0  0  0  0  0  0  0  0  0
   -2.2096    3.3944   11.7667 C   0  0  0  0  0  0  0  0  0  0  0  0
   -0.2077    1.2537   13.9369 F   0  0  0  0  0  0  0  0  0  0  0  0
  1  2  1  0
  2  3  1  0
  3  4  2  0
  4  5  1  0
  5  6  2  0
  6  7  1  0
  7  8  2  0
  7  9  1  0
  9 10  1  0
  9 11  1  0
  9 12  1  0
  5 13  1  0
 13 14  1  0
 13 15  1  0
 13 16  1  0
  2 17  1  0
 17 18  1  0
 18 19  1  0
 19 20  1  0
 20 21  1  0
 21 22  1  0
 22 23  1  0
 20 24  1  0
 24 25  1  0
 25 26  2  0
 26 27  1  0
 27 28  1  0
 28 29  2  0
 29 30  1  0
 30 31  1  0
 31 32  1  0
 31 33  1  0
 19 34  1  0
 34 35  2  0
 35 36  1  0
 36 37  2  0
 37 38  1  0
 38 39  2  0
 37 40  1  0
  8  3  1  0
 23 18  1  0
 29 25  1  0
 39 34  1  0
M  END
$$$$
