
     RDKit          3D

 40 43  0  0  0  0  0  0  0  0999 V2000
   -1.6208    2.4585    4.8066 C   0  0  0  0  0  0  0  0  0  0  0  0
   -1.6632    2.1636    6.3116 C   0  0  0  0  0  0  0  0  0  0  0  0
   -0.6665    1.1031    6.6166 C   0  0  0  0  0  0  0  0  0  0  0  0
    0.1462    0.5829    5.6278 C   0  0  0  0  0  0  0  0  0  0  0  0
    1.0772   -0.4009    5.8918 C   0  0  0  0  0  0  0  0  0  0  0  0
    1.2061   -0.8836    7.1774 C   0  0  0  0  0  0  0  0  0  0  0  0
    0.4225   -0.3972    8.1874 C   0  0  0  0  0  0  0  0  0  0  0  0
   -0.4947    0.5831    7.8865 C   0  0  0  0  0  0  0  0  0  0  0  0
    0.5635   -0.9202    9.5809 C   0  0  0  0  0  0  0  0  0  0  0  0
    0.0971   -2.2171    9.6685 F   0  0  0  0  0  0  0  0  0  0  0  0
    1.9148   -0.9598    9.8926 F   0  0  0  0  0  0  0  0  0  0  0  0
   -0.0417   -0.0890   10.4886 F   0  0  0  0  0  0  0  0  0  0  0  0
    1.9342   -0.9464    4.8334 C   0  0  0  0  0  0  0  0  0  0  0  0
    3.0157   -0.1142    4.5778 F   0  0  0  0  0  0  0  0  0  0  0  0
    1.2509   -1.1680    3.6540 F   0  0  0  0  0  0  0  0  0  0  0  0
    2.4692   -2.1596    5.2704 F   0  0  0  0  0  0  0  0  0  0  0  0
   -2.9479    1.8119    6.6154 O   0  0  0  0  0  0  0  0  0  0  0  0
   -3.7766    2.8558    7.0130 C   0  0  0  0  0  0  0  0  0  0  0  0
   -3.5132    3.1972    8.4560 C   0  0  0  0  0  0  0  0  0  0  0  0
   -4.3187    2.4200    9.3104 N   0  0  0  0  0  0  0  0  0  0  0  0
   -5.0090    1.3255    8.7378 C   0  0  0  0  0  0  0  0  0  0  0  0
   -5.7060    1.6390    7.4426 C   0  0  0  0  0  0  0  0  0  0  0  0
   -5.1016    2.6387    6.7201 O   0  0  0  0  0  0  0  0  0  0  0  0
   -4.0302    2.3875   10.6804 C   0  0  0  0  0  0  0  0  0  0  0  0
   -4.8167    3.4673   11.3688 C   0  0  0  0  0  0  0  0  0  0  0  0
   -5.7596    4.2630   10.7864 N   0  0  0  0  0  0  0  0  0  0  0  0
   -6.2324    5.0879   11.6962 N   0  0  0  0  0  0  0  0  0  0  0  0
   -5.6354    4.8595   12.8424 N   0  0  0  0  0  0  0  0  0  0  0  0
   -4.7541    3.8632   12.6739 C   0  0  0  0  0  0  0  0  0  0  0  0
   -3.8788    3.2986   13.7064 C   0  0  0  0  0  0  0  0  0  0  0  0
   -4.2169    3.7415   15.0417 N   0  0  0  0  0  0  0  0  0  0  0  0
   -4.1086    2.6088   15.9444 C   0  0  0  0  0  0  0  0  0  0  0  0
   -3.3887    4.8081   15.5066 C   0  0  0  0  0  0  0  0  0  0  0  0
   -3.5162    4.6507    8.7268 C   0  0  0  0  0  0  0  0  0  0  0  0
   -2.5261    5.2910    9.4662 C   0  0  0  0  0  0  0  0  0  0  0  0
   -2.5669    6.6512    9.7005 C   0  0  0  0  0  0  0  0  0  0  0  0
   -3.5912    7.4311    9.2106 C   0  0  0  0  0  0  0  0  0  0  0  0
   -4.5784    6.8110    8.4765 C   0  0  0  0  0  0  0  0  0  0  0  0
   -4.5298    5.4462    8.2463 C   0  0  0  0  0  0  0  0  0  0  0  0
   -3.6368    8.7757    9.4369 F   0  0  0  0  0  0  0  0  0  0  0  0
  1  2  1  0
  2  3  1  0
  3  4  2  0
  4  5  1  0
  5  6  2  0
  6  7  1  0
  7  8  2  0
  7  9  1  0
  9 10  1  0
  9 11  1  0
  9 12  1  0
  5 13  1  0
 13 14  1  0
 13 15  1  0
 13 16  1  0
  2 17  1  0
 17 18  1  0
 18 19  1  0
 19 20  1  0
 20 21  1  0
 21 22  1  0
 22 23  1  0
 20 24  1  0
 24 25  1  0
 25 26  2  0
 26 27  1  0
 27 28  1  0
 28 29  2  0
 29 30  1  0
 30 31  1  0
 31 32  1  0
 31 33  1  0
 19 34  1  0
 34 35  2  0
 35 36  1  0
 36 37  2  0
 37 38  1  0
 38 39  2  0
 37 40  1  0
  8  3  1  0
 23 18  1  0
 29 25  1  0
 39 34  1  0
M  END
$$$$
