
     RDKit          3D

 40 43  0  0  0  0  0  0  0  0999 V2000
   -4.6660    1.9055    5.5058 C   0  0  0  0  0  0  0  0  0  0  0  0
   -3.6577    2.7408    6.3054 C   0  0  0  0  0  0  0  0  0  0  0  0
   -2.3172    2.1078    6.1888 C   0  0  0  0  0  0  0  0  0  0  0  0
   -1.5936    1.7585    7.3128 C   0  0  0  0  0  0  0  0  0  0  0  0
   -0.3487    1.1697    7.2244 C   0  0  0  0  0  0  0  0  0  0  0  0
    0.1953    0.9195    5.9820 C   0  0  0  0  0  0  0  0  0  0  0  0
   -0.4860    1.2485    4.8425 C   0  0  0  0  0  0  0  0  0  0  0  0
   -1.7244    1.8341    4.9697 C   0  0  0  0  0  0  0  0  0  0  0  0
    0.1039    0.9760    3.4961 C   0  0  0  0  0  0  0  0  0  0  0  0
    1.0573   -0.0203    3.5699 F   0  0  0  0  0  0  0  0  0  0  0  0
   -0.9055    0.5027    2.6702 F   0  0  0  0  0  0  0  0  0  0  0  0
    0.5951    2.1227    2.9261 F   0  0  0  0  0  0  0  0  0  0  0  0
    0.4109    0.8038    8.4250 C   0  0  0  0  0  0  0  0  0  0  0  0
    1.5491    0.0771    8.1027 F   0  0  0  0  0  0  0  0  0  0  0  0
   -0.3393    0.0821    9.3325 F   0  0  0  0  0  0  0  0  0  0  0  0
    0.8560    1.9717    9.0472 F   0  0  0  0  0  0  0  0  0  0  0  0
   -4.1216    2.8091    7.5887 O   0  0  0  0  0  0  0  0  0  0  0  0
   -3.6487    3.8797    8.3403 C   0  0  0  0  0  0  0  0  0  0  0  0
   -3.7016    3.5386    9.8063 C   0  0  0  0  0  0  0  0  0  0  0  0
   -4.9499    3.8861   10.3575 N   0  0  0  0  0  0  0  0  0  0  0  0
   -5.9863    4.2302    9.4575 C   0  0  0  0  0  0  0  0  0  0  0  0
   -5.5724    5.1782    8.3658 C   0  0  0  0  0  0  0  0  0  0  0  0
   -4.2472    5.0745    8.0197 O   0  0  0  0  0  0  0  0  0  0  0  0
   -5.2965    3.4027   11.6253 C   0  0  0  0  0  0  0  0  0  0  0  0
   -4.6360    4.2584   12.6693 C   0  0  0  0  0  0  0  0  0  0  0  0
   -3.3053    4.2663   12.9702 N   0  0  0  0  0  0  0  0  0  0  0  0
   -3.0980    5.1394   13.9327 N   0  0  0  0  0  0  0  0  0  0  0  0
   -4.2382    5.6966   14.2672 N   0  0  0  0  0  0  0  0  0  0  0  0
   -5.2091    5.1737   13.5046 C   0  0  0  0  0  0  0  0  0  0  0  0
   -6.6327    5.5222   13.5572 C   0  0  0  0  0  0  0  0  0  0  0  0
   -7.0004    6.2274   14.7659 N   0  0  0  0  0  0  0  0  0  0  0  0
   -6.7993    5.3392   15.8972 C   0  0  0  0  0  0  0  0  0  0  0  0
   -6.2582    7.4317   14.9618 C   0  0  0  0  0  0  0  0  0  0  0  0
   -2.5200    4.0061   10.5623 C   0  0  0  0  0  0  0  0  0  0  0  0
   -1.2882    3.3594   10.5290 C   0  0  0  0  0  0  0  0  0  0  0  0
   -0.2089    3.8259   11.2531 C   0  0  0  0  0  0  0  0  0  0  0  0
   -0.3080    4.9527   12.0390 C   0  0  0  0  0  0  0  0  0  0  0  0
   -1.5214    5.6037   12.0816 C   0  0  0  0  0  0  0  0  0  0  0  0
   -2.5988    5.1290   11.3523 C   0  0  0  0  0  0  0  0  0  0  0  0
    0.7547    5.4200   12.7556 F   0  0  0  0  0  0  0  0  0  0  0  0
  1  2  1  0
  2  3  1  0
  3  4  2  0
  4  5  1  0
  5  6  2  0
  6  7  1  0
  7  8  2  0
  7  9  1  0
  9 10  1  0
  9 11  1  0
  9 12  1  0
  5 13  1  0
 13 14  1  0
 13 15  1  0
 13 16  1  0
  2 17  1  0
 17 18  1  0
 18 19  1  0
 19 20  1  0
 20 21  1  0
 21 22  1  0
 22 23  1  0
 20 24  1  0
 24 25  1  0
 25 26  2  0
 26 27  1  0
 27 28  1  0
 28 29  2  0
 29 30  1  0
 30 31  1  0
 31 32  1  0
 31 33  1  0
 19 34  1  0
 34 35  2  0
 35 36  1  0
 36 37  2  0
 37 38  1  0
 38 39  2  0
 37 40  1  0
  8  3  1  0
 23 18  1  0
 29 25  1  0
 39 34  1  0
M  END
$$$$
