
     RDKit          3D

 40 43  0  0  0  0  0  0  0  0999 V2000
   -2.2139    5.3532    8.9150 C   0  0  0  0  0  0  0  0  0  0  0  0
   -1.6393    3.9405    8.7485 C   0  0  0  0  0  0  0  0  0  0  0  0
   -2.2596    3.3128    7.5517 C   0  0  0  0  0  0  0  0  0  0  0  0
   -3.6310    3.1821    7.4453 C   0  0  0  0  0  0  0  0  0  0  0  0
   -4.2247    2.6032    6.3423 C   0  0  0  0  0  0  0  0  0  0  0  0
   -3.4332    2.1394    5.3125 C   0  0  0  0  0  0  0  0  0  0  0  0
   -2.0712    2.2484    5.3755 C   0  0  0  0  0  0  0  0  0  0  0  0
   -1.5148    2.8311    6.4906 C   0  0  0  0  0  0  0  0  0  0  0  0
   -1.2139    1.7464    4.2583 C   0  0  0  0  0  0  0  0  0  0  0  0
    0.0612    1.4631    4.7066 F   0  0  0  0  0  0  0  0  0  0  0  0
   -1.7524    0.5512    3.8042 F   0  0  0  0  0  0  0  0  0  0  0  0
   -1.2098    2.6210    3.2018 F   0  0  0  0  0  0  0  0  0  0  0  0
   -5.6821    2.4691    6.2408 C   0  0  0  0  0  0  0  0  0  0  0  0
   -6.0435    1.2190    5.7570 F   0  0  0  0  0  0  0  0  0  0  0  0
   -6.2537    3.4406    5.4430 F   0  0  0  0  0  0  0  0  0  0  0  0
   -6.2316    2.5667    7.5205 F   0  0  0  0  0  0  0  0  0  0  0  0
   -1.8872    3.2670    9.9110 O   0  0  0  0  0  0  0  0  0  0  0  0
   -0.8667    3.3061   10.8553 C   0  0  0  0  0  0  0  0  0  0  0  0
   -0.7281    1.9594   11.5152 C   0  0  0  0  0  0  0  0  0  0  0  0
   -1.5717    1.8621   12.6384 N   0  0  0  0  0  0  0  0  0  0  0  0
   -2.5496    2.8708   12.8082 C   0  0  0  0  0  0  0  0  0  0  0  0
   -2.0386    4.2714   12.6110 C   0  0  0  0  0  0  0  0  0  0  0  0
   -0.9825    4.3542   11.7366 O   0  0  0  0  0  0  0  0  0  0  0  0
   -1.7953    0.6077   13.2196 C   0  0  0  0  0  0  0  0  0  0  0  0
   -1.5463   -0.4571   12.1888 C   0  0  0  0  0  0  0  0  0  0  0  0
   -1.7598   -0.3348   10.8468 N   0  0  0  0  0  0  0  0  0  0  0  0
   -1.4298   -1.4677   10.2644 N   0  0  0  0  0  0  0  0  0  0  0  0
   -1.0119   -2.3178   11.1728 N   0  0  0  0  0  0  0  0  0  0  0  0
   -1.0716   -1.7238   12.3733 C   0  0  0  0  0  0  0  0  0  0  0  0
   -0.6944   -2.3261   13.6563 C   0  0  0  0  0  0  0  0  0  0  0  0
   -0.2834   -3.7081   13.5358 N   0  0  0  0  0  0  0  0  0  0  0  0
   -1.4484   -4.5081   13.2011 C   0  0  0  0  0  0  0  0  0  0  0  0
    0.7354   -3.9080   12.5551 C   0  0  0  0  0  0  0  0  0  0  0  0
    0.6764    1.5547   11.7374 C   0  0  0  0  0  0  0  0  0  0  0  0
    1.4522    0.9272   10.7672 C   0  0  0  0  0  0  0  0  0  0  0  0
    2.7603    0.5611   11.0154 C   0  0  0  0  0  0  0  0  0  0  0  0
    3.3516    0.8030   12.2357 C   0  0  0  0  0  0  0  0  0  0  0  0
    2.5959    1.4239   13.2059 C   0  0  0  0  0  0  0  0  0  0  0  0
    1.2846    1.7876   12.9486 C   0  0  0  0  0  0  0  0  0  0  0  0
    4.6440    0.4455   12.4870 F   0  0  0  0  0  0  0  0  0  0  0  0
  1  2  1  0
  2  3  1  0
  3  4  2  0
  4  5  1  0
  5  6  2  0
  6  7  1  0
  7  8  2  0
  7  9  1  0
  9 10  1  0
  9 11  1  0
  9 12  1  0
  5 13  1  0
 13 14  1  0
 13 15  1  0
 13 16  1  0
  2 17  1  0
 17 18  1  0
 18 19  1  0
 19 20  1  0
 20 21  1  0
 21 22  1  0
 22 23  1  0
 20 24  1  0
 24 25  1  0
 25 26  2  0
 26 27  1  0
 27 28  1  0
 28 29  2  0
 29 30  1  0
 30 31  1  0
 31 32  1  0
 31 33  1  0
 19 34  1  0
 34 35  2  0
 35 36  1  0
 36 37  2  0
 37 38  1  0
 38 39  2  0
 37 40  1  0
  8  3  1  0
 23 18  1  0
 29 25  1  0
 39 34  1  0
M  END
$$$$
