
     RDKit          3D

 40 43  0  0  0  0  0  0  0  0999 V2000
   -4.2204   -0.6141    7.2669 C   0  0  0  0  0  0  0  0  0  0  0  0
   -3.9370    0.8454    6.8882 C   0  0  0  0  0  0  0  0  0  0  0  0
   -2.5015    0.9713    6.5213 C   0  0  0  0  0  0  0  0  0  0  0  0
   -2.1161    1.6127    5.3598 C   0  0  0  0  0  0  0  0  0  0  0  0
   -0.7891    1.7399    5.0031 C   0  0  0  0  0  0  0  0  0  0  0  0
    0.1862    1.2146    5.8247 C   0  0  0  0  0  0  0  0  0  0  0  0
   -0.1498    0.5719    6.9844 C   0  0  0  0  0  0  0  0  0  0  0  0
   -1.4828    0.4641    7.3072 C   0  0  0  0  0  0  0  0  0  0  0  0
    0.9080    0.0036    7.8750 C   0  0  0  0  0  0  0  0  0  0  0  0
    0.3561   -0.4890    9.0411 F   0  0  0  0  0  0  0  0  0  0  0  0
    1.4894   -1.0736    7.2220 F   0  0  0  0  0  0  0  0  0  0  0  0
    1.9001    0.9192    8.1172 F   0  0  0  0  0  0  0  0  0  0  0  0
   -0.3919    2.4224    3.7667 C   0  0  0  0  0  0  0  0  0  0  0  0
   -1.3726    3.3068    3.3385 F   0  0  0  0  0  0  0  0  0  0  0  0
   -0.1020    1.5440    2.7412 F   0  0  0  0  0  0  0  0  0  0  0  0
    0.7435    3.1927    4.0247 F   0  0  0  0  0  0  0  0  0  0  0  0
   -4.2988    1.6149    7.9576 O   0  0  0  0  0  0  0  0  0  0  0  0
   -3.7239    2.8804    8.0066 C   0  0  0  0  0  0  0  0  0  0  0  0
   -4.0004    3.5167    9.3434 C   0  0  0  0  0  0  0  0  0  0  0  0
   -5.2171    4.2251    9.3196 N   0  0  0  0  0  0  0  0  0  0  0  0
   -6.0667    4.0235    8.2060 C   0  0  0  0  0  0  0  0  0  0  0  0
   -5.3677    4.0658    6.8751 C   0  0  0  0  0  0  0  0  0  0  0  0
   -4.0539    3.6687    6.9304 O   0  0  0  0  0  0  0  0  0  0  0  0
   -5.7848    4.6507   10.5270 C   0  0  0  0  0  0  0  0  0  0  0  0
   -4.7899    4.4394   11.6333 C   0  0  0  0  0  0  0  0  0  0  0  0
   -3.6348    3.7191   11.5415 N   0  0  0  0  0  0  0  0  0  0  0  0
   -3.0233    3.7565   12.7061 N   0  0  0  0  0  0  0  0  0  0  0  0
   -3.7339    4.4706   13.5474 N   0  0  0  0  0  0  0  0  0  0  0  0
   -4.8325    4.9073   12.9151 C   0  0  0  0  0  0  0  0  0  0  0  0
   -5.8916    5.7393   13.4957 C   0  0  0  0  0  0  0  0  0  0  0  0
   -5.3816    6.8262   14.3032 N   0  0  0  0  0  0  0  0  0  0  0  0
   -5.0666    6.3109   15.6240 C   0  0  0  0  0  0  0  0  0  0  0  0
   -4.2257    7.4492   13.7415 C   0  0  0  0  0  0  0  0  0  0  0  0
   -2.8444    4.2561    9.8936 C   0  0  0  0  0  0  0  0  0  0  0  0
   -1.7251    4.5935    9.1385 C   0  0  0  0  0  0  0  0  0  0  0  0
   -0.6632    5.2820    9.6909 C   0  0  0  0  0  0  0  0  0  0  0  0
   -0.6689    5.6638   11.0144 C   0  0  0  0  0  0  0  0  0  0  0  0
   -1.7706    5.3369   11.7743 C   0  0  0  0  0  0  0  0  0  0  0  0
   -2.8312    4.6461   11.2123 C   0  0  0  0  0  0  0  0  0  0  0  0
    0.3760    6.3456   11.5661 F   0  0  0  0  0  0  0  0  0  0  0  0
  1  2  1  0
  2  3  1  0
  3  4  2  0
  4  5  1  0
  5  6  2  0
  6  7  1  0
  7  8  2  0
  7  9  1  0
  9 10  1  0
  9 11  1  0
  9 12  1  0
  5 13  1  0
 13 14  1  0
 13 15  1  0
 13 16  1  0
  2 17  1  0
 17 18  1  0
 18 19  1  0
 19 20  1  0
 20 21  1  0
 21 22  1  0
 22 23  1  0
 20 24  1  0
 24 25  1  0
 25 26  2  0
 26 27  1  0
 27 28  1  0
 28 29  2  0
 29 30  1  0
 30 31  1  0
 31 32  1  0
 31 33  1  0
 19 34  1  0
 34 35  2  0
 35 36  1  0
 36 37  2  0
 37 38  1  0
 38 39  2  0
 37 40  1  0
  8  3  1  0
 23 18  1  0
 29 25  1  0
 39 34  1  0
M  END
$$$$
