
     RDKit          3D

 40 43  0  0  0  0  0  0  0  0999 V2000
   -5.6647    1.8887    6.0937 C   0  0  0  0  0  0  0  0  0  0  0  0
   -4.6910    2.9041    6.7058 C   0  0  0  0  0  0  0  0  0  0  0  0
   -3.3013    2.4827    6.3861 C   0  0  0  0  0  0  0  0  0  0  0  0
   -2.5817    1.6826    7.2527 C   0  0  0  0  0  0  0  0  0  0  0  0
   -1.2915    1.2810    6.9728 C   0  0  0  0  0  0  0  0  0  0  0  0
   -0.6966    1.6856    5.7961 C   0  0  0  0  0  0  0  0  0  0  0  0
   -1.3720    2.4777    4.9089 C   0  0  0  0  0  0  0  0  0  0  0  0
   -2.6565    2.8584    5.2217 C   0  0  0  0  0  0  0  0  0  0  0  0
   -0.7269    2.9150    3.6331 C   0  0  0  0  0  0  0  0  0  0  0  0
   -0.2197    1.8319    2.9426 F   0  0  0  0  0  0  0  0  0  0  0  0
   -1.7040    3.4807    2.8269 F   0  0  0  0  0  0  0  0  0  0  0  0
    0.2240    3.8770    3.8599 F   0  0  0  0  0  0  0  0  0  0  0  0
   -0.5367    0.4320    7.9012 C   0  0  0  0  0  0  0  0  0  0  0  0
    0.3961    1.1693    8.6178 F   0  0  0  0  0  0  0  0  0  0  0  0
    0.1084   -0.6113    7.2668 F   0  0  0  0  0  0  0  0  0  0  0  0
   -1.4206   -0.0999    8.8419 F   0  0  0  0  0  0  0  0  0  0  0  0
   -4.9538    2.9544    8.0456 O   0  0  0  0  0  0  0  0  0  0  0  0
   -4.3900    4.0282    8.7266 C   0  0  0  0  0  0  0  0  0  0  0  0
   -3.8617    3.5683   10.0599 C   0  0  0  0  0  0  0  0  0  0  0  0
   -4.8603    3.6474   11.0495 N   0  0  0  0  0  0  0  0  0  0  0  0
   -6.1886    3.8752   10.6179 C   0  0  0  0  0  0  0  0  0  0  0  0
   -6.3304    4.9643    9.5905 C   0  0  0  0  0  0  0  0  0  0  0  0
   -5.2195    5.1216    8.7981 O   0  0  0  0  0  0  0  0  0  0  0  0
   -4.6555    3.0121   12.2805 C   0  0  0  0  0  0  0  0  0  0  0  0
   -4.1308    4.0183   13.2657 C   0  0  0  0  0  0  0  0  0  0  0  0
   -4.4451    5.3456   13.2954 N   0  0  0  0  0  0  0  0  0  0  0  0
   -3.7973    5.9080   14.2933 N   0  0  0  0  0  0  0  0  0  0  0  0
   -3.0773    5.0007   14.9105 N   0  0  0  0  0  0  0  0  0  0  0  0
   -3.2612    3.8214   14.2997 C   0  0  0  0  0  0  0  0  0  0  0  0
   -2.6400    2.5468   14.6745 C   0  0  0  0  0  0  0  0  0  0  0  0
   -1.3062    2.7019   15.2133 N   0  0  0  0  0  0  0  0  0  0  0  0
   -0.7445    3.9407   14.7041 C   0  0  0  0  0  0  0  0  0  0  0  0
   -1.2742    2.7101   16.6411 C   0  0  0  0  0  0  0  0  0  0  0  0
   -2.5614    4.1738   10.4183 C   0  0  0  0  0  0  0  0  0  0  0  0
   -2.3620    5.5473   10.5211 C   0  0  0  0  0  0  0  0  0  0  0  0
   -1.1300    6.0742   10.8550 C   0  0  0  0  0  0  0  0  0  0  0  0
   -0.0464    5.2600   11.1005 C   0  0  0  0  0  0  0  0  0  0  0  0
   -0.2289    3.8979   11.0026 C   0  0  0  0  0  0  0  0  0  0  0  0
   -1.4679    3.3779   10.6672 C   0  0  0  0  0  0  0  0  0  0  0  0
    1.1730    5.7738   11.4323 F   0  0  0  0  0  0  0  0  0  0  0  0
  1  2  1  0
  2  3  1  0
  3  4  2  0
  4  5  1  0
  5  6  2  0
  6  7  1  0
  7  8  2  0
  7  9  1  0
  9 10  1  0
  9 11  1  0
  9 12  1  0
  5 13  1  0
 13 14  1  0
 13 15  1  0
 13 16  1  0
  2 17  1  0
 17 18  1  0
 18 19  1  0
 19 20  1  0
 20 21  1  0
 21 22  1  0
 22 23  1  0
 20 24  1  0
 24 25  1  0
 25 26  2  0
 26 27  1  0
 27 28  1  0
 28 29  2  0
 29 30  1  0
 30 31  1  0
 31 32  1  0
 31 33  1  0
 19 34  1  0
 34 35  2  0
 35 36  1  0
 36 37  2  0
 37 38  1  0
 38 39  2  0
 37 40  1  0
  8  3  1  0
 23 18  1  0
 29 25  1  0
 39 34  1  0
M  END
$$$$
