
     RDKit          3D

 40 43  0  0  0  0  0  0  0  0999 V2000
   -4.8659    2.5471    7.2258 C   0  0  0  0  0  0  0  0  0  0  0  0
   -3.5943    3.3475    7.5355 C   0  0  0  0  0  0  0  0  0  0  0  0
   -2.4311    2.6446    6.9320 C   0  0  0  0  0  0  0  0  0  0  0  0
   -1.4662    2.0530    7.7244 C   0  0  0  0  0  0  0  0  0  0  0  0
   -0.3804    1.3958    7.1826 C   0  0  0  0  0  0  0  0  0  0  0  0
   -0.2479    1.3231    5.8117 C   0  0  0  0  0  0  0  0  0  0  0  0
   -1.1795    1.8943    4.9891 C   0  0  0  0  0  0  0  0  0  0  0  0
   -2.2484    2.5411    5.5651 C   0  0  0  0  0  0  0  0  0  0  0  0
   -1.0357    1.8142    3.5032 C   0  0  0  0  0  0  0  0  0  0  0  0
   -1.9326    0.9090    2.9708 F   0  0  0  0  0  0  0  0  0  0  0  0
   -1.3565    3.0546    2.9709 F   0  0  0  0  0  0  0  0  0  0  0  0
    0.2579    1.5361    3.1422 F   0  0  0  0  0  0  0  0  0  0  0  0
    0.6385    0.7720    8.0341 C   0  0  0  0  0  0  0  0  0  0  0  0
    1.6379    1.6744    8.3722 F   0  0  0  0  0  0  0  0  0  0  0  0
    1.2161   -0.3381    7.4500 F   0  0  0  0  0  0  0  0  0  0  0  0
    0.0420    0.3815    9.2344 F   0  0  0  0  0  0  0  0  0  0  0  0
   -3.5170    3.4680    8.8942 O   0  0  0  0  0  0  0  0  0  0  0  0
   -2.7406    4.5243    9.3587 C   0  0  0  0  0  0  0  0  0  0  0  0
   -3.0153    4.7571   10.8211 C   0  0  0  0  0  0  0  0  0  0  0  0
   -4.0868    5.6542   10.9936 N   0  0  0  0  0  0  0  0  0  0  0  0
   -4.8621    5.9702    9.8528 C   0  0  0  0  0  0  0  0  0  0  0  0
   -4.0573    6.2886    8.6229 C   0  0  0  0  0  0  0  0  0  0  0  0
   -2.8399    5.6536    8.5819 O   0  0  0  0  0  0  0  0  0  0  0  0
   -4.6724    5.7854   12.2589 C   0  0  0  0  0  0  0  0  0  0  0  0
   -5.3640    4.4983   12.6104 C   0  0  0  0  0  0  0  0  0  0  0  0
   -6.0327    3.6877   11.7402 N   0  0  0  0  0  0  0  0  0  0  0  0
   -6.5051    2.6559   12.4065 N   0  0  0  0  0  0  0  0  0  0  0  0
   -6.1702    2.7646   13.6708 N   0  0  0  0  0  0  0  0  0  0  0  0
   -5.4640    3.8931   13.8301 C   0  0  0  0  0  0  0  0  0  0  0  0
   -4.8991    4.3897   15.0892 C   0  0  0  0  0  0  0  0  0  0  0  0
   -5.1858    3.5311   16.2179 N   0  0  0  0  0  0  0  0  0  0  0  0
   -5.8703    4.3148   17.2312 C   0  0  0  0  0  0  0  0  0  0  0  0
   -5.9782    2.3943   15.8723 C   0  0  0  0  0  0  0  0  0  0  0  0
   -1.8001    5.0587   11.6074 C   0  0  0  0  0  0  0  0  0  0  0  0
   -0.9946    4.0754   12.1742 C   0  0  0  0  0  0  0  0  0  0  0  0
    0.1312    4.3985   12.9057 C   0  0  0  0  0  0  0  0  0  0  0  0
    0.5035    5.7097   13.1040 C   0  0  0  0  0  0  0  0  0  0  0  0
   -0.2842    6.6941   12.5486 C   0  0  0  0  0  0  0  0  0  0  0  0
   -1.4117    6.3612   11.8165 C   0  0  0  0  0  0  0  0  0  0  0  0
    1.6154    6.0359   13.8242 F   0  0  0  0  0  0  0  0  0  0  0  0
  1  2  1  0
  2  3  1  0
  3  4  2  0
  4  5  1  0
  5  6  2  0
  6  7  1  0
  7  8  2  0
  7  9  1  0
  9 10  1  0
  9 11  1  0
  9 12  1  0
  5 13  1  0
 13 14  1  0
 13 15  1  0
 13 16  1  0
  2 17  1  0
 17 18  1  0
 18 19  1  0
 19 20  1  0
 20 21  1  0
 21 22  1  0
 22 23  1  0
 20 24  1  0
 24 25  1  0
 25 26  2  0
 26 27  1  0
 27 28  1  0
 28 29  2  0
 29 30  1  0
 30 31  1  0
 31 32  1  0
 31 33  1  0
 19 34  1  0
 34 35  2  0
 35 36  1  0
 36 37  2  0
 37 38  1  0
 38 39  2  0
 37 40  1  0
  8  3  1  0
 23 18  1  0
 29 25  1  0
 39 34  1  0
M  END
$$$$
