
     RDKit          3D

 40 43  0  0  0  0  0  0  0  0999 V2000
   -5.2650    0.7720    6.6431 C   0  0  0  0  0  0  0  0  0  0  0  0
   -4.4897    2.0621    6.9405 C   0  0  0  0  0  0  0  0  0  0  0  0
   -3.2301    2.0527    6.1504 C   0  0  0  0  0  0  0  0  0  0  0  0
   -2.2291    1.1379    6.4152 C   0  0  0  0  0  0  0  0  0  0  0  0
   -1.0539    1.1134    5.6924 C   0  0  0  0  0  0  0  0  0  0  0  0
   -0.8658    2.0251    4.6747 C   0  0  0  0  0  0  0  0  0  0  0  0
   -1.8302    2.9485    4.3777 C   0  0  0  0  0  0  0  0  0  0  0  0
   -2.9886    2.9428    5.1198 C   0  0  0  0  0  0  0  0  0  0  0  0
   -1.6260    3.9358    3.2738 C   0  0  0  0  0  0  0  0  0  0  0  0
   -1.4398    5.2071    3.7798 F   0  0  0  0  0  0  0  0  0  0  0  0
   -0.4596    3.5981    2.6027 F   0  0  0  0  0  0  0  0  0  0  0  0
   -2.6511    3.8848    2.3639 F   0  0  0  0  0  0  0  0  0  0  0  0
    0.0024    0.1378    5.9833 C   0  0  0  0  0  0  0  0  0  0  0  0
   -0.3016   -1.1103    5.4567 F   0  0  0  0  0  0  0  0  0  0  0  0
    0.2496    0.0053    7.3355 F   0  0  0  0  0  0  0  0  0  0  0  0
    1.1792    0.5506    5.3558 F   0  0  0  0  0  0  0  0  0  0  0  0
   -4.2889    2.1071    8.2912 O   0  0  0  0  0  0  0  0  0  0  0  0
   -3.1749    2.8284    8.7074 C   0  0  0  0  0  0  0  0  0  0  0  0
   -2.9899    2.6719   10.1939 C   0  0  0  0  0  0  0  0  0  0  0  0
   -3.7131    3.6554   10.8956 N   0  0  0  0  0  0  0  0  0  0  0  0
   -4.6514    4.4207   10.1634 C   0  0  0  0  0  0  0  0  0  0  0  0
   -4.1413    4.9343    8.8451 C   0  0  0  0  0  0  0  0  0  0  0  0
   -3.1810    4.1333    8.2766 O   0  0  0  0  0  0  0  0  0  0  0  0
   -3.8949    3.5156   12.2771 C   0  0  0  0  0  0  0  0  0  0  0  0
   -4.1634    4.8694   12.8717 C   0  0  0  0  0  0  0  0  0  0  0  0
   -5.3743    5.4964   12.9154 N   0  0  0  0  0  0  0  0  0  0  0  0
   -5.2226    6.6612   13.5086 N   0  0  0  0  0  0  0  0  0  0  0  0
   -3.9647    6.8142   13.8507 N   0  0  0  0  0  0  0  0  0  0  0  0
   -3.2832    5.7238   13.4710 C   0  0  0  0  0  0  0  0  0  0  0  0
   -1.8484    5.4896   13.6645 C   0  0  0  0  0  0  0  0  0  0  0  0
   -1.3016    6.2142   14.7911 N   0  0  0  0  0  0  0  0  0  0  0  0
   -1.5444    5.4426   15.9974 C   0  0  0  0  0  0  0  0  0  0  0  0
    0.0958    6.4805   14.6634 C   0  0  0  0  0  0  0  0  0  0  0  0
   -1.5765    2.5122   10.5974 C   0  0  0  0  0  0  0  0  0  0  0  0
   -0.5440    3.2916   10.0844 C   0  0  0  0  0  0  0  0  0  0  0  0
    0.7650    3.1087   10.4845 C   0  0  0  0  0  0  0  0  0  0  0  0
    1.1022    2.1457   11.4097 C   0  0  0  0  0  0  0  0  0  0  0  0
    0.0904    1.3666   11.9267 C   0  0  0  0  0  0  0  0  0  0  0  0
   -1.2197    1.5567   11.5198 C   0  0  0  0  0  0  0  0  0  0  0  0
    2.3931    1.9607   11.8107 F   0  0  0  0  0  0  0  0  0  0  0  0
  1  2  1  0
  2  3  1  0
  3  4  2  0
  4  5  1  0
  5  6  2  0
  6  7  1  0
  7  8  2  0
  7  9  1  0
  9 10  1  0
  9 11  1  0
  9 12  1  0
  5 13  1  0
 13 14  1  0
 13 15  1  0
 13 16  1  0
  2 17  1  0
 17 18  1  0
 18 19  1  0
 19 20  1  0
 20 21  1  0
 21 22  1  0
 22 23  1  0
 20 24  1  0
 24 25  1  0
 25 26  2  0
 26 27  1  0
 27 28  1  0
 28 29  2  0
 29 30  1  0
 30 31  1  0
 31 32  1  0
 31 33  1  0
 19 34  1  0
 34 35  2  0
 35 36  1  0
 36 37  2  0
 37 38  1  0
 38 39  2  0
 37 40  1  0
  8  3  1  0
 23 18  1  0
 29 25  1  0
 39 34  1  0
M  END
$$$$
