
     RDKit          3D

 40 43  0  0  0  0  0  0  0  0999 V2000
    0.4626    5.3598   10.2142 C   0  0  0  0  0  0  0  0  0  0  0  0
   -0.3398    4.0840   10.5008 C   0  0  0  0  0  0  0  0  0  0  0  0
    0.2719    2.9580    9.7464 C   0  0  0  0  0  0  0  0  0  0  0  0
    1.3978    2.3115   10.2191 C   0  0  0  0  0  0  0  0  0  0  0  0
    1.9790    1.2643    9.5336 C   0  0  0  0  0  0  0  0  0  0  0  0
    1.4258    0.8454    8.3416 C   0  0  0  0  0  0  0  0  0  0  0  0
    0.3112    1.4564    7.8364 C   0  0  0  0  0  0  0  0  0  0  0  0
   -0.2406    2.4968    8.5475 C   0  0  0  0  0  0  0  0  0  0  0  0
   -0.2884    1.0010    6.5449 C   0  0  0  0  0  0  0  0  0  0  0  0
   -0.1348   -0.3621    6.3854 F   0  0  0  0  0  0  0  0  0  0  0  0
   -1.6531    1.2464    6.5922 F   0  0  0  0  0  0  0  0  0  0  0  0
    0.2179    1.7076    5.4840 F   0  0  0  0  0  0  0  0  0  0  0  0
    3.1750    0.5859   10.0449 C   0  0  0  0  0  0  0  0  0  0  0  0
    3.6980   -0.2944    9.1075 F   0  0  0  0  0  0  0  0  0  0  0  0
    2.9390   -0.0995   11.2203 F   0  0  0  0  0  0  0  0  0  0  0  0
    4.1661    1.5407   10.2800 F   0  0  0  0  0  0  0  0  0  0  0  0
   -1.6357    4.3380   10.1507 O   0  0  0  0  0  0  0  0  0  0  0  0
   -2.5873    4.0419   11.1210 C   0  0  0  0  0  0  0  0  0  0  0  0
   -3.5446    3.0031   10.5989 C   0  0  0  0  0  0  0  0  0  0  0  0
   -4.6240    3.6082    9.9269 N   0  0  0  0  0  0  0  0  0  0  0  0
   -4.5162    4.9878    9.6309 C   0  0  0  0  0  0  0  0  0  0  0  0
   -4.0234    5.8321   10.7738 C   0  0  0  0  0  0  0  0  0  0  0  0
   -3.1982    5.1579   11.6406 O   0  0  0  0  0  0  0  0  0  0  0  0
   -5.4683    2.8177    9.1375 C   0  0  0  0  0  0  0  0  0  0  0  0
   -4.6272    1.9447    8.2494 C   0  0  0  0  0  0  0  0  0  0  0  0
   -4.1723    0.6956    8.5569 N   0  0  0  0  0  0  0  0  0  0  0  0
   -3.4716    0.2420    7.5397 N   0  0  0  0  0  0  0  0  0  0  0  0
   -3.4539    1.1447    6.5870 N   0  0  0  0  0  0  0  0  0  0  0  0
   -4.1593    2.2096    6.9945 C   0  0  0  0  0  0  0  0  0  0  0  0
   -4.3883    3.4397    6.2295 C   0  0  0  0  0  0  0  0  0  0  0  0
   -3.7941    3.4073    4.9107 N   0  0  0  0  0  0  0  0  0  0  0  0
   -2.3550    3.5454    5.0499 C   0  0  0  0  0  0  0  0  0  0  0  0
   -4.0951    2.2129    4.1879 C   0  0  0  0  0  0  0  0  0  0  0  0
   -3.9123    1.9834   11.6044 C   0  0  0  0  0  0  0  0  0  0  0  0
   -3.0753    0.9319   11.9659 C   0  0  0  0  0  0  0  0  0  0  0  0
   -3.4574   -0.0031   12.9075 C   0  0  0  0  0  0  0  0  0  0  0  0
   -4.6849    0.0674   13.5285 C   0  0  0  0  0  0  0  0  0  0  0  0
   -5.5241    1.1032   13.1809 C   0  0  0  0  0  0  0  0  0  0  0  0
   -5.1330    2.0366   12.2355 C   0  0  0  0  0  0  0  0  0  0  0  0
   -5.0680   -0.8520   14.4608 F   0  0  0  0  0  0  0  0  0  0  0  0
  1  2  1  0
  2  3  1  0
  3  4  2  0
  4  5  1  0
  5  6  2  0
  6  7  1  0
  7  8  2  0
  7  9  1  0
  9 10  1  0
  9 11  1  0
  9 12  1  0
  5 13  1  0
 13 14  1  0
 13 15  1  0
 13 16  1  0
  2 17  1  0
 17 18  1  0
 18 19  1  0
 19 20  1  0
 20 21  1  0
 21 22  1  0
 22 23  1  0
 20 24  1  0
 24 25  1  0
 25 26  2  0
 26 27  1  0
 27 28  1  0
 28 29  2  0
 29 30  1  0
 30 31  1  0
 31 32  1  0
 31 33  1  0
 19 34  1  0
 34 35  2  0
 35 36  1  0
 36 37  2  0
 37 38  1  0
 38 39  2  0
 37 40  1  0
  8  3  1  0
 23 18  1  0
 29 25  1  0
 39 34  1  0
M  END
$$$$
