
     RDKit          3D

 17 17  0  0  0  0  0  0  0  0999 V2000
   -3.4132    6.6459    9.2230 O   0  0  0  0  0  0  0  0  0  0  0  0
   -3.9347    6.7639    7.9358 C   0  0  0  0  0  0  0  0  0  0  0  0
   -2.9835    6.0657    7.0216 C   0  0  0  0  0  0  0  0  0  0  0  0
   -2.5374    4.7927    7.2996 C   0  0  0  0  0  0  0  0  0  0  0  0
   -1.6498    4.1487    6.4417 C   0  0  0  0  0  0  0  0  0  0  0  0
   -1.1982    4.7636    5.3015 C   0  0  0  0  0  0  0  0  0  0  0  0
   -1.6494    6.0516    5.0201 C   0  0  0  0  0  0  0  0  0  0  0  0
   -2.5262    6.6847    5.8695 C   0  0  0  0  0  0  0  0  0  0  0  0
   -2.9958    7.9776    5.6120 O   0  0  0  0  0  0  0  0  0  0  0  0
   -1.1896    2.7665    6.7781 C   0  0  2  0  0  0  0  0  0  0  0  0
   -0.3465    2.8802    8.0437 C   0  0  0  0  0  0  0  0  0  0  0  0
    0.2624    1.6365    8.3870 N   0  0  0  0  0  4  0  0  0  0  0  0
    0.9040    1.5733    9.6588 C   0  0  0  0  0  0  0  0  0  0  0  0
    1.9318    2.7090    9.7157 C   0  0  0  0  0  0  0  0  0  0  0  0
   -0.0447    1.7944   10.8144 C   0  0  0  0  0  0  0  0  0  0  0  0
    1.6067    0.2583    9.9189 C   0  0  0  0  0  0  0  0  0  0  0  0
   -0.4904    2.2760    5.7039 O   0  0  0  0  0  0  0  0  0  0  0  0
  1  2  1  0
  2  3  1  0
  3  4  2  0
  4  5  1  0
  5  6  2  0
  6  7  1  0
  7  8  2  0
  8  9  1  0
  5 10  1  0
 10 11  1  0
 11 12  1  0
 12 13  1  0
 13 14  1  0
 13 15  1  0
 13 16  1  0
 10 17  1  6
  8  3  1  0
M  CHG  1  12   1
M  END
$$$$
