
     RDKit          3D

 17 17  0  0  0  0  0  0  0  0999 V2000
   -5.0661    6.6327    7.8818 O   0  0  0  0  0  0  0  0  0  0  0  0
   -3.7391    6.9739    8.1377 C   0  0  0  0  0  0  0  0  0  0  0  0
   -2.9024    6.1896    7.1822 C   0  0  0  0  0  0  0  0  0  0  0  0
   -2.5147    4.9001    7.4719 C   0  0  0  0  0  0  0  0  0  0  0  0
   -1.7338    4.1756    6.5752 C   0  0  0  0  0  0  0  0  0  0  0  0
   -1.3318    4.7256    5.3845 C   0  0  0  0  0  0  0  0  0  0  0  0
   -1.7239    6.0303    5.0913 C   0  0  0  0  0  0  0  0  0  0  0  0
   -2.4953    6.7429    5.9790 C   0  0  0  0  0  0  0  0  0  0  0  0
   -2.9036    8.0544    5.7109 O   0  0  0  0  0  0  0  0  0  0  0  0
   -1.3344    2.7781    6.9260 C   0  0  2  0  0  0  0  0  0  0  0  0
   -0.3777    2.8786    8.1092 C   0  0  0  0  0  0  0  0  0  0  0  0
    0.1114    1.5979    8.5041 N   0  0  0  0  0  4  0  0  0  0  0  0
    0.8994    1.5577    9.6917 C   0  0  0  0  0  0  0  0  0  0  0  0
    2.0371    2.5714    9.5269 C   0  0  0  0  0  0  0  0  0  0  0  0
    0.1329    1.9697   10.9275 C   0  0  0  0  0  0  0  0  0  0  0  0
    1.4907    0.1950    9.9814 C   0  0  0  0  0  0  0  0  0  0  0  0
   -0.7649    2.2057    5.8163 O   0  0  0  0  0  0  0  0  0  0  0  0
  1  2  1  0
  2  3  1  0
  3  4  2  0
  4  5  1  0
  5  6  2  0
  6  7  1  0
  7  8  2  0
  8  9  1  0
  5 10  1  0
 10 11  1  0
 11 12  1  0
 12 13  1  0
 13 14  1  0
 13 15  1  0
 13 16  1  0
 10 17  1  6
  8  3  1  0
M  CHG  1  12   1
M  END
$$$$
