
     RDKit          3D

 17 17  0  0  0  0  0  0  0  0999 V2000
   -3.0364    7.2037    9.0667 O   0  0  0  0  0  0  0  0  0  0  0  0
   -3.7938    6.6581    8.0316 C   0  0  0  0  0  0  0  0  0  0  0  0
   -2.8351    5.9829    7.1079 C   0  0  0  0  0  0  0  0  0  0  0  0
   -2.4109    4.6940    7.3438 C   0  0  0  0  0  0  0  0  0  0  0  0
   -1.5161    4.0718    6.4773 C   0  0  0  0  0  0  0  0  0  0  0  0
   -1.0355    4.7243    5.3705 C   0  0  0  0  0  0  0  0  0  0  0  0
   -1.4645    6.0285    5.1317 C   0  0  0  0  0  0  0  0  0  0  0  0
   -2.3485    6.6400    5.9894 C   0  0  0  0  0  0  0  0  0  0  0  0
   -2.7963    7.9483    5.7744 O   0  0  0  0  0  0  0  0  0  0  0  0
   -1.0803    2.6713    6.7676 C   0  0  2  0  0  0  0  0  0  0  0  0
   -0.2294    2.7291    8.0317 C   0  0  0  0  0  0  0  0  0  0  0  0
    0.3407    1.4591    8.3441 N   0  0  0  0  0  4  0  0  0  0  0  0
    0.9708    1.3420    9.6177 C   0  0  0  0  0  0  0  0  0  0  0  0
   -0.1285    1.3943   10.6845 C   0  0  0  0  0  0  0  0  0  0  0  0
    1.6897    0.0259    9.8061 C   0  0  0  0  0  0  0  0  0  0  0  0
    1.9817    2.4332    9.8969 C   0  0  0  0  0  0  0  0  0  0  0  0
   -0.3953    2.2023    5.6748 O   0  0  0  0  0  0  0  0  0  0  0  0
  1  2  1  0
  2  3  1  0
  3  4  2  0
  4  5  1  0
  5  6  2  0
  6  7  1  0
  7  8  2  0
  8  9  1  0
  5 10  1  0
 10 11  1  0
 11 12  1  0
 12 13  1  0
 13 14  1  0
 13 15  1  0
 13 16  1  0
 10 17  1  6
  8  3  1  0
M  CHG  1  12   1
M  END
$$$$
