
     RDKit          3D

 17 17  0  0  0  0  0  0  0  0999 V2000
   -2.9239    7.3724    8.8851 O   0  0  0  0  0  0  0  0  0  0  0  0
   -3.6802    6.6944    7.9305 C   0  0  0  0  0  0  0  0  0  0  0  0
   -2.7139    5.9764    7.0480 C   0  0  0  0  0  0  0  0  0  0  0  0
   -2.2549    4.7192    7.3734 C   0  0  0  0  0  0  0  0  0  0  0  0
   -1.3532    4.0567    6.5447 C   0  0  0  0  0  0  0  0  0  0  0  0
   -0.9002    4.6371    5.3872 C   0  0  0  0  0  0  0  0  0  0  0  0
   -1.3644    5.9091    5.0579 C   0  0  0  0  0  0  0  0  0  0  0  0
   -2.2551    6.5606    5.8784 C   0  0  0  0  0  0  0  0  0  0  0  0
   -2.7379    7.8380    5.5728 O   0  0  0  0  0  0  0  0  0  0  0  0
   -0.8793    2.6926    6.9323 C   0  0  2  0  0  0  0  0  0  0  0  0
   -0.0634    2.8577    8.2101 C   0  0  0  0  0  0  0  0  0  0  0  0
    0.5627    1.6363    8.5993 N   0  0  0  0  0  4  0  0  0  0  0  0
    1.2055    1.6297    9.8719 C   0  0  0  0  0  0  0  0  0  0  0  0
    0.1122    1.7079   10.9432 C   0  0  0  0  0  0  0  0  0  0  0  0
    1.9794    0.3595   10.1401 C   0  0  0  0  0  0  0  0  0  0  0  0
    2.1724    2.7774   10.0688 C   0  0  0  0  0  0  0  0  0  0  0  0
   -0.1516    2.1807    5.8875 O   0  0  0  0  0  0  0  0  0  0  0  0
  1  2  1  0
  2  3  1  0
  3  4  2  0
  4  5  1  0
  5  6  2  0
  6  7  1  0
  7  8  2  0
  8  9  1  0
  5 10  1  0
 10 11  1  0
 11 12  1  0
 12 13  1  0
 13 14  1  0
 13 15  1  0
 13 16  1  0
 10 17  1  6
  8  3  1  0
M  CHG  1  12   1
M  END
$$$$
