
     RDKit          3D

 17 17  0  0  0  0  0  0  0  0999 V2000
   -3.2169    7.0972    8.6609 O   0  0  0  0  0  0  0  0  0  0  0  0
   -3.9925    6.3991    7.7368 C   0  0  0  0  0  0  0  0  0  0  0  0
   -3.0435    5.6956    6.8244 C   0  0  0  0  0  0  0  0  0  0  0  0
   -2.5545    4.4462    7.1356 C   0  0  0  0  0  0  0  0  0  0  0  0
   -1.6693    3.7971    6.2791 C   0  0  0  0  0  0  0  0  0  0  0  0
   -1.2627    4.3833    5.1073 C   0  0  0  0  0  0  0  0  0  0  0  0
   -1.7574    5.6474    4.7922 C   0  0  0  0  0  0  0  0  0  0  0  0
   -2.6316    6.2856    5.6403 C   0  0  0  0  0  0  0  0  0  0  0  0
   -3.1442    7.5550    5.3495 O   0  0  0  0  0  0  0  0  0  0  0  0
   -1.1617    2.4412    6.6522 C   0  0  2  0  0  0  0  0  0  0  0  0
   -0.2482    2.6307    7.8585 C   0  0  0  0  0  0  0  0  0  0  0  0
    0.3801    1.4091    8.2433 N   0  0  0  0  0  4  0  0  0  0  0  0
    0.9775    1.3826    9.5376 C   0  0  0  0  0  0  0  0  0  0  0  0
   -0.1287    1.6522   10.5636 C   0  0  0  0  0  0  0  0  0  0  0  0
    1.5720    0.0384    9.8902 C   0  0  0  0  0  0  0  0  0  0  0  0
    2.0784    2.4054    9.7185 C   0  0  0  0  0  0  0  0  0  0  0  0
   -0.5168    1.9120    5.5625 O   0  0  0  0  0  0  0  0  0  0  0  0
  1  2  1  0
  2  3  1  0
  3  4  2  0
  4  5  1  0
  5  6  2  0
  6  7  1  0
  7  8  2  0
  8  9  1  0
  5 10  1  0
 10 11  1  0
 11 12  1  0
 12 13  1  0
 13 14  1  0
 13 15  1  0
 13 16  1  0
 10 17  1  6
  8  3  1  0
M  CHG  1  12   1
M  END
$$$$
