
     RDKit          3D

 17 17  0  0  0  0  0  0  0  0999 V2000
   -5.2601    6.3676    7.7172 O   0  0  0  0  0  0  0  0  0  0  0  0
   -3.9365    6.7348    7.9537 C   0  0  0  0  0  0  0  0  0  0  0  0
   -3.0932    5.9178    7.0320 C   0  0  0  0  0  0  0  0  0  0  0  0
   -2.6820    4.6509    7.3823 C   0  0  0  0  0  0  0  0  0  0  0  0
   -1.8952    3.8956    6.5167 C   0  0  0  0  0  0  0  0  0  0  0  0
   -1.5105    4.3924    5.2972 C   0  0  0  0  0  0  0  0  0  0  0  0
   -1.9264    5.6742    4.9427 C   0  0  0  0  0  0  0  0  0  0  0  0
   -2.7036    6.4174    5.7998 C   0  0  0  0  0  0  0  0  0  0  0  0
   -3.1356    7.7070    5.4700 O   0  0  0  0  0  0  0  0  0  0  0  0
   -1.4700    2.5240    6.9332 C   0  0  2  0  0  0  0  0  0  0  0  0
   -0.5178    2.6983    8.1116 C   0  0  0  0  0  0  0  0  0  0  0  0
    0.0164    1.4498    8.5490 N   0  0  0  0  0  4  0  0  0  0  0  0
    0.7645    1.4695    9.7626 C   0  0  0  0  0  0  0  0  0  0  0  0
   -0.1850    1.9039   10.8846 C   0  0  0  0  0  0  0  0  0  0  0  0
    1.2981    0.1106   10.1537 C   0  0  0  0  0  0  0  0  0  0  0  0
    1.9507    2.4088    9.7286 C   0  0  0  0  0  0  0  0  0  0  0  0
   -0.8874    1.9111    5.8524 O   0  0  0  0  0  0  0  0  0  0  0  0
  1  2  1  0
  2  3  1  0
  3  4  2  0
  4  5  1  0
  5  6  2  0
  6  7  1  0
  7  8  2  0
  8  9  1  0
  5 10  1  0
 10 11  1  0
 11 12  1  0
 12 13  1  0
 13 14  1  0
 13 15  1  0
 13 16  1  0
 10 17  1  6
  8  3  1  0
M  CHG  1  12   1
M  END
$$$$
