
     RDKit          3D

 17 17  0  0  0  0  0  0  0  0999 V2000
   -4.7045    6.3380    8.0051 O   0  0  0  0  0  0  0  0  0  0  0  0
   -3.3509    6.6640    8.0715 C   0  0  0  0  0  0  0  0  0  0  0  0
   -2.6680    5.8818    6.9990 C   0  0  0  0  0  0  0  0  0  0  0  0
   -2.2266    4.5976    7.2292 C   0  0  0  0  0  0  0  0  0  0  0  0
   -1.5902    3.8751    6.2234 C   0  0  0  0  0  0  0  0  0  0  0  0
   -1.3870    4.4220    4.9818 C   0  0  0  0  0  0  0  0  0  0  0  0
   -1.8335    5.7213    4.7488 C   0  0  0  0  0  0  0  0  0  0  0  0
   -2.4619    6.4320    5.7443 C   0  0  0  0  0  0  0  0  0  0  0  0
   -2.9205    7.7380    5.5385 O   0  0  0  0  0  0  0  0  0  0  0  0
   -1.1265    2.4834    6.5125 C   0  0  2  0  0  0  0  0  0  0  0  0
   -0.3835    2.5355    7.8432 C   0  0  0  0  0  0  0  0  0  0  0  0
    0.2770    1.3037    8.1288 N   0  0  0  0  0  4  0  0  0  0  0  0
    0.9219    1.2080    9.3968 C   0  0  0  0  0  0  0  0  0  0  0  0
    1.6121   -0.1588    9.4632 C   0  0  0  0  0  0  0  0  0  0  0  0
    2.0036    2.2453    9.5930 C   0  0  0  0  0  0  0  0  0  0  0  0
   -0.0249    1.3403   10.5702 C   0  0  0  0  0  0  0  0  0  0  0  0
   -0.3379    2.0706    5.4679 O   0  0  0  0  0  0  0  0  0  0  0  0
  1  2  1  0
  2  3  1  0
  3  4  2  0
  4  5  1  0
  5  6  2  0
  6  7  1  0
  7  8  2  0
  8  9  1  0
  5 10  1  0
 10 11  1  0
 11 12  1  0
 12 13  1  0
 13 14  1  0
 13 15  1  0
 13 16  1  0
 10 17  1  6
  8  3  1  0
M  CHG  1  12   1
M  END
$$$$
