
     RDKit          3D

 17 17  0  0  0  0  0  0  0  0999 V2000
   -5.1455    6.6210    7.3375 O   0  0  0  0  0  0  0  0  0  0  0  0
   -3.8688    7.1320    7.5648 C   0  0  0  0  0  0  0  0  0  0  0  0
   -2.9130    6.2290    6.8584 C   0  0  0  0  0  0  0  0  0  0  0  0
   -2.6270    4.9745    7.3500 C   0  0  0  0  0  0  0  0  0  0  0  0
   -1.7339    4.1386    6.6850 C   0  0  0  0  0  0  0  0  0  0  0  0
   -1.1178    4.5416    5.5274 C   0  0  0  0  0  0  0  0  0  0  0  0
   -1.4071    5.8108    5.0300 C   0  0  0  0  0  0  0  0  0  0  0  0
   -2.2898    6.6337    5.6891 C   0  0  0  0  0  0  0  0  0  0  0  0
   -2.5989    7.9128    5.2127 O   0  0  0  0  0  0  0  0  0  0  0  0
   -1.4505    2.7837    7.2502 C   0  0  2  0  0  0  0  0  0  0  0  0
   -0.0923    2.8700    7.9381 C   0  0  0  0  0  0  0  0  0  0  0  0
    0.2183    1.6719    8.6476 N   0  0  0  0  0  4  0  0  0  0  0  0
    1.3945    1.6978    9.4531 C   0  0  0  0  0  0  0  0  0  0  0  0
    2.4243    0.7704    8.7985 C   0  0  0  0  0  0  0  0  0  0  0  0
    2.0339    3.0653    9.5271 C   0  0  0  0  0  0  0  0  0  0  0  0
    1.1625    1.2488   10.8797 C   0  0  0  0  0  0  0  0  0  0  0  0
   -1.4792    1.8771    6.2203 O   0  0  0  0  0  0  0  0  0  0  0  0
  1  2  1  0
  2  3  1  0
  3  4  2  0
  4  5  1  0
  5  6  2  0
  6  7  1  0
  7  8  2  0
  8  9  1  0
  5 10  1  0
 10 11  1  0
 11 12  1  0
 12 13  1  0
 13 14  1  0
 13 15  1  0
 13 16  1  0
 10 17  1  6
  8  3  1  0
M  CHG  1  12   1
M  END
$$$$
