
     RDKit          3D

 17 17  0  0  0  0  0  0  0  0999 V2000
   -2.5444    6.6213    3.5421 O   0  0  0  0  0  0  0  0  0  0  0  0
   -1.3926    6.3525    4.2798 C   0  0  0  0  0  0  0  0  0  0  0  0
   -1.8271    5.6054    5.4969 C   0  0  0  0  0  0  0  0  0  0  0  0
   -1.3473    4.3420    5.7627 C   0  0  0  0  0  0  0  0  0  0  0  0
   -1.7580    3.6519    6.9001 C   0  0  0  0  0  0  0  0  0  0  0  0
   -2.6481    4.2105    7.7820 C   0  0  0  0  0  0  0  0  0  0  0  0
   -3.1336    5.4888    7.5131 C   0  0  0  0  0  0  0  0  0  0  0  0
   -2.7257    6.1677    6.3890 C   0  0  0  0  0  0  0  0  0  0  0  0
   -3.1967    7.4521    6.0940 O   0  0  0  0  0  0  0  0  0  0  0  0
   -1.2136    2.2827    7.1539 C   0  0  2  0  0  0  0  0  0  0  0  0
   -0.2146    2.4125    8.2987 C   0  0  0  0  0  0  0  0  0  0  0  0
    0.3548    1.1522    8.6492 N   0  0  0  0  0  4  0  0  0  0  0  0
    1.0827    1.1030    9.8742 C   0  0  0  0  0  0  0  0  0  0  0  0
    2.3677    1.9161    9.6821 C   0  0  0  0  0  0  0  0  0  0  0  0
    0.3431    1.7356   11.0306 C   0  0  0  0  0  0  0  0  0  0  0  0
    1.4471   -0.3007   10.3072 C   0  0  0  0  0  0  0  0  0  0  0  0
   -0.6472    1.8262    5.9902 O   0  0  0  0  0  0  0  0  0  0  0  0
  1  2  1  0
  2  3  1  0
  3  4  2  0
  4  5  1  0
  5  6  2  0
  6  7  1  0
  7  8  2  0
  8  9  1  0
  5 10  1  0
 10 11  1  0
 11 12  1  0
 12 13  1  0
 13 14  1  0
 13 15  1  0
 13 16  1  0
 10 17  1  6
  8  3  1  0
M  CHG  1  12   1
M  END
$$$$
