
     RDKit          3D

 17 17  0  0  0  0  0  0  0  0999 V2000
   -3.2583    7.0230    8.9403 O   0  0  0  0  0  0  0  0  0  0  0  0
   -4.0485    6.3897    7.9825 C   0  0  0  0  0  0  0  0  0  0  0  0
   -3.1149    5.7044    7.0408 C   0  0  0  0  0  0  0  0  0  0  0  0
   -2.6517    4.4335    7.3004 C   0  0  0  0  0  0  0  0  0  0  0  0
   -1.7808    3.8015    6.4168 C   0  0  0  0  0  0  0  0  0  0  0  0
   -1.3629    4.4263    5.2692 C   0  0  0  0  0  0  0  0  0  0  0  0
   -1.8315    5.7121    5.0064 C   0  0  0  0  0  0  0  0  0  0  0  0
   -2.6917    6.3333    5.8811 C   0  0  0  0  0  0  0  0  0  0  0  0
   -3.1780    7.6237    5.6427 O   0  0  0  0  0  0  0  0  0  0  0  0
   -1.3011    2.4213    6.7338 C   0  0  2  0  0  0  0  0  0  0  0  0
   -0.3003    2.5558    7.8766 C   0  0  0  0  0  0  0  0  0  0  0  0
    0.2708    1.2972    8.2303 N   0  0  0  0  0  4  0  0  0  0  0  0
    0.9325    1.2322    9.4916 C   0  0  0  0  0  0  0  0  0  0  0  0
    1.6313   -0.1291    9.5781 C   0  0  0  0  0  0  0  0  0  0  0  0
    2.0106    2.2793    9.6515 C   0  0  0  0  0  0  0  0  0  0  0  0
    0.0001    1.3844   10.6740 C   0  0  0  0  0  0  0  0  0  0  0  0
   -0.7534    1.8875    5.5944 O   0  0  0  0  0  0  0  0  0  0  0  0
  1  2  1  0
  2  3  1  0
  3  4  2  0
  4  5  1  0
  5  6  2  0
  6  7  1  0
  7  8  2  0
  8  9  1  0
  5 10  1  0
 10 11  1  0
 11 12  1  0
 12 13  1  0
 13 14  1  0
 13 15  1  0
 13 16  1  0
 10 17  1  6
  8  3  1  0
M  CHG  1  12   1
M  END
$$$$
