
     RDKit          3D

 17 17  0  0  0  0  0  0  0  0999 V2000
   -2.2985    6.5088    3.4763 O   0  0  0  0  0  0  0  0  0  0  0  0
   -1.5333    6.8449    4.5918 C   0  0  0  0  0  0  0  0  0  0  0  0
   -1.9567    5.9314    5.6938 C   0  0  0  0  0  0  0  0  0  0  0  0
   -1.3839    4.6879    5.8441 C   0  0  0  0  0  0  0  0  0  0  0  0
   -1.7850    3.8419    6.8746 C   0  0  0  0  0  0  0  0  0  0  0  0
   -2.7578    4.2237    7.7634 C   0  0  0  0  0  0  0  0  0  0  0  0
   -3.3374    5.4818    7.6114 C   0  0  0  0  0  0  0  0  0  0  0  0
   -2.9388    6.3149    6.5927 C   0  0  0  0  0  0  0  0  0  0  0  0
   -3.5033    7.5833    6.4162 O   0  0  0  0  0  0  0  0  0  0  0  0
   -1.1383    2.5001    7.0047 C   0  0  2  0  0  0  0  0  0  0  0  0
   -0.0474    2.6390    8.0612 C   0  0  0  0  0  0  0  0  0  0  0  0
    0.2639    1.3858    8.6679 N   0  0  0  0  0  4  0  0  0  0  0  0
    1.0685    1.4323    9.8440 C   0  0  0  0  0  0  0  0  0  0  0  0
    1.0376    0.0387   10.4814 C   0  0  0  0  0  0  0  0  0  0  0  0
    2.5202    1.7420    9.5589 C   0  0  0  0  0  0  0  0  0  0  0  0
    0.5985    2.4504   10.8605 C   0  0  0  0  0  0  0  0  0  0  0  0
   -0.6555    2.1376    5.7723 O   0  0  0  0  0  0  0  0  0  0  0  0
  1  2  1  0
  2  3  1  0
  3  4  2  0
  4  5  1  0
  5  6  2  0
  6  7  1  0
  7  8  2  0
  8  9  1  0
  5 10  1  0
 10 11  1  0
 11 12  1  0
 12 13  1  0
 13 14  1  0
 13 15  1  0
 13 16  1  0
 10 17  1  6
  8  3  1  0
M  CHG  1  12   1
M  END
$$$$
