
     RDKit          3D

 17 17  0  0  0  0  0  0  0  0999 V2000
   -3.1853    7.1909    8.8357 O   0  0  0  0  0  0  0  0  0  0  0  0
   -3.9059    6.5034    7.8606 C   0  0  0  0  0  0  0  0  0  0  0  0
   -2.9044    5.8394    6.9751 C   0  0  0  0  0  0  0  0  0  0  0  0
   -2.4208    4.5835    7.2678 C   0  0  0  0  0  0  0  0  0  0  0  0
   -1.4863    3.9715    6.4366 C   0  0  0  0  0  0  0  0  0  0  0  0
   -1.0248    4.6016    5.3088 C   0  0  0  0  0  0  0  0  0  0  0  0
   -1.5140    5.8723    5.0125 C   0  0  0  0  0  0  0  0  0  0  0  0
   -2.4370    6.4738    5.8354 C   0  0  0  0  0  0  0  0  0  0  0  0
   -2.9454    7.7487    5.5625 O   0  0  0  0  0  0  0  0  0  0  0  0
   -0.9864    2.6070    6.7883 C   0  0  2  0  0  0  0  0  0  0  0  0
   -0.0809    2.7709    8.0044 C   0  0  0  0  0  0  0  0  0  0  0  0
   -0.0474    1.5887    8.8022 N   0  0  0  0  0  4  0  0  0  0  0  0
    0.6413    1.6820   10.0471 C   0  0  0  0  0  0  0  0  0  0  0  0
    0.8896    0.2546   10.5469 C   0  0  0  0  0  0  0  0  0  0  0  0
    1.9980    2.3374    9.9278 C   0  0  0  0  0  0  0  0  0  0  0  0
   -0.1207    2.4499   11.1056 C   0  0  0  0  0  0  0  0  0  0  0  0
   -0.3356    2.0955    5.6937 O   0  0  0  0  0  0  0  0  0  0  0  0
  1  2  1  0
  2  3  1  0
  3  4  2  0
  4  5  1  0
  5  6  2  0
  6  7  1  0
  7  8  2  0
  8  9  1  0
  5 10  1  0
 10 11  1  0
 11 12  1  0
 12 13  1  0
 13 14  1  0
 13 15  1  0
 13 16  1  0
 10 17  1  6
  8  3  1  0
M  CHG  1  12   1
M  END
$$$$
