
     RDKit          3D

 17 17  0  0  0  0  0  0  0  0999 V2000
   -2.0080    7.3360    8.9635 O   0  0  0  0  0  0  0  0  0  0  0  0
   -3.0955    6.7480    8.3197 C   0  0  0  0  0  0  0  0  0  0  0  0
   -2.5458    5.9779    7.1652 C   0  0  0  0  0  0  0  0  0  0  0  0
   -1.9883    4.7313    7.3449 C   0  0  0  0  0  0  0  0  0  0  0  0
   -1.4775    4.0199    6.2625 C   0  0  0  0  0  0  0  0  0  0  0  0
   -1.5160    4.5404    4.9939 C   0  0  0  0  0  0  0  0  0  0  0  0
   -2.0801    5.8016    4.8119 C   0  0  0  0  0  0  0  0  0  0  0  0
   -2.5838    6.5015    5.8830 C   0  0  0  0  0  0  0  0  0  0  0  0
   -3.1558    7.7695    5.7298 O   0  0  0  0  0  0  0  0  0  0  0  0
   -0.8812    2.6692    6.4987 C   0  0  2  0  0  0  0  0  0  0  0  0
   -0.5764    2.5784    7.9902 C   0  0  0  0  0  0  0  0  0  0  0  0
    0.1248    1.3790    8.3146 N   0  0  0  0  0  4  0  0  0  0  0  0
    0.4532    1.1875    9.6888 C   0  0  0  0  0  0  0  0  0  0  0  0
    0.3790    2.5548   10.3774 C   0  0  0  0  0  0  0  0  0  0  0  0
   -0.5222    0.2884   10.4130 C   0  0  0  0  0  0  0  0  0  0  0  0
    1.8306    0.5993    9.9068 C   0  0  0  0  0  0  0  0  0  0  0  0
    0.2355    2.5517    5.7098 O   0  0  0  0  0  0  0  0  0  0  0  0
  1  2  1  0
  2  3  1  0
  3  4  2  0
  4  5  1  0
  5  6  2  0
  6  7  1  0
  7  8  2  0
  8  9  1  0
  5 10  1  0
 10 11  1  0
 11 12  1  0
 12 13  1  0
 13 14  1  0
 13 15  1  0
 13 16  1  0
 10 17  1  6
  8  3  1  0
M  CHG  1  12   1
M  END
$$$$
