
     RDKit          3D

 17 17  0  0  0  0  0  0  0  0999 V2000
   -4.7049    6.4849    8.5125 O   0  0  0  0  0  0  0  0  0  0  0  0
   -3.3605    6.8379    8.4076 C   0  0  0  0  0  0  0  0  0  0  0  0
   -2.7861    6.0162    7.3016 C   0  0  0  0  0  0  0  0  0  0  0  0
   -2.2723    4.7614    7.5432 C   0  0  0  0  0  0  0  0  0  0  0  0
   -1.7380    4.0017    6.5058 C   0  0  0  0  0  0  0  0  0  0  0  0
   -1.7095    4.4820    5.2211 C   0  0  0  0  0  0  0  0  0  0  0  0
   -2.2293    5.7516    4.9766 C   0  0  0  0  0  0  0  0  0  0  0  0
   -2.7564    6.4991    6.0033 C   0  0  0  0  0  0  0  0  0  0  0  0
   -3.2851    7.7767    5.7869 O   0  0  0  0  0  0  0  0  0  0  0  0
   -1.1909    2.6436    6.8087 C   0  0  2  0  0  0  0  0  0  0  0  0
   -0.8245    2.6378    8.2890 C   0  0  0  0  0  0  0  0  0  0  0  0
   -0.1645    1.4304    8.6657 N   0  0  0  0  0  4  0  0  0  0  0  0
    0.2784    1.3443   10.0182 C   0  0  0  0  0  0  0  0  0  0  0  0
    1.1290    0.0758   10.1469 C   0  0  0  0  0  0  0  0  0  0  0  0
    1.1639    2.4985   10.4281 C   0  0  0  0  0  0  0  0  0  0  0  0
   -0.8514    1.2850   11.0236 C   0  0  0  0  0  0  0  0  0  0  0  0
   -0.1164    2.4227    5.9841 O   0  0  0  0  0  0  0  0  0  0  0  0
  1  2  1  0
  2  3  1  0
  3  4  2  0
  4  5  1  0
  5  6  2  0
  6  7  1  0
  7  8  2  0
  8  9  1  0
  5 10  1  0
 10 11  1  0
 11 12  1  0
 12 13  1  0
 13 14  1  0
 13 15  1  0
 13 16  1  0
 10 17  1  6
  8  3  1  0
M  CHG  1  12   1
M  END
$$$$
