
     RDKit          3D

 17 17  0  0  0  0  0  0  0  0999 V2000
   -2.5059    6.3202    3.5329 O   0  0  0  0  0  0  0  0  0  0  0  0
   -1.5326    6.5302    4.5083 C   0  0  0  0  0  0  0  0  0  0  0  0
   -1.9236    5.7054    5.6894 C   0  0  0  0  0  0  0  0  0  0  0  0
   -1.3943    4.4488    5.8837 C   0  0  0  0  0  0  0  0  0  0  0  0
   -1.7647    3.6859    6.9879 C   0  0  0  0  0  0  0  0  0  0  0  0
   -2.6634    4.1645    7.9074 C   0  0  0  0  0  0  0  0  0  0  0  0
   -3.1989    5.4359    7.7109 C   0  0  0  0  0  0  0  0  0  0  0  0
   -2.8308    6.1868    6.6194 C   0  0  0  0  0  0  0  0  0  0  0  0
   -3.3524    7.4662    6.3969 O   0  0  0  0  0  0  0  0  0  0  0  0
   -1.1671    2.3267    7.1640 C   0  0  2  0  0  0  0  0  0  0  0  0
   -0.1812    2.4272    8.3230 C   0  0  0  0  0  0  0  0  0  0  0  0
    0.4535    1.1771    8.5874 N   0  0  0  0  0  4  0  0  0  0  0  0
    1.2328    1.1001    9.7789 C   0  0  0  0  0  0  0  0  0  0  0  0
    1.9201   -0.2697    9.7948 C   0  0  0  0  0  0  0  0  0  0  0  0
    2.3341    2.1338    9.8363 C   0  0  0  0  0  0  0  0  0  0  0  0
    0.4208    1.2596   11.0461 C   0  0  0  0  0  0  0  0  0  0  0  0
   -0.5757    1.9639    5.9799 O   0  0  0  0  0  0  0  0  0  0  0  0
  1  2  1  0
  2  3  1  0
  3  4  2  0
  4  5  1  0
  5  6  2  0
  6  7  1  0
  7  8  2  0
  8  9  1  0
  5 10  1  0
 10 11  1  0
 11 12  1  0
 12 13  1  0
 13 14  1  0
 13 15  1  0
 13 16  1  0
 10 17  1  6
  8  3  1  0
M  CHG  1  12   1
M  END
$$$$
