
     RDKit          3D

 17 17  0  0  0  0  0  0  0  0999 V2000
   -4.9551    6.3820    7.4767 O   0  0  0  0  0  0  0  0  0  0  0  0
   -3.6703    6.7595    7.8636 C   0  0  0  0  0  0  0  0  0  0  0  0
   -2.7205    5.9871    7.0095 C   0  0  0  0  0  0  0  0  0  0  0  0
   -2.3219    4.7167    7.3617 C   0  0  0  0  0  0  0  0  0  0  0  0
   -1.4352    4.0033    6.5595 C   0  0  0  0  0  0  0  0  0  0  0  0
   -0.9376    4.5456    5.4018 C   0  0  0  0  0  0  0  0  0  0  0  0
   -1.3409    5.8309    5.0453 C   0  0  0  0  0  0  0  0  0  0  0  0
   -2.2168    6.5327    5.8398 C   0  0  0  0  0  0  0  0  0  0  0  0
   -2.6388    7.8247    5.5064 O   0  0  0  0  0  0  0  0  0  0  0  0
   -1.0273    2.6264    6.9759 C   0  0  2  0  0  0  0  0  0  0  0  0
   -0.0147    2.7907    8.1043 C   0  0  0  0  0  0  0  0  0  0  0  0
    0.4713    1.5315    8.5662 N   0  0  0  0  0  4  0  0  0  0  0  0
    1.1690    1.5376    9.8096 C   0  0  0  0  0  0  0  0  0  0  0  0
    2.4341    2.3831    9.6263 C   0  0  0  0  0  0  0  0  0  0  0  0
    0.3822    2.1791   10.9293 C   0  0  0  0  0  0  0  0  0  0  0  0
    1.5631    0.1577   10.2906 C   0  0  0  0  0  0  0  0  0  0  0  0
   -0.5146    1.9827    5.8777 O   0  0  0  0  0  0  0  0  0  0  0  0
  1  2  1  0
  2  3  1  0
  3  4  2  0
  4  5  1  0
  5  6  2  0
  6  7  1  0
  7  8  2  0
  8  9  1  0
  5 10  1  0
 10 11  1  0
 11 12  1  0
 12 13  1  0
 13 14  1  0
 13 15  1  0
 13 16  1  0
 10 17  1  6
  8  3  1  0
M  CHG  1  12   1
M  END
$$$$
