
     RDKit          3D

 17 17  0  0  0  0  0  0  0  0999 V2000
   -4.8157    6.3202    7.6339 O   0  0  0  0  0  0  0  0  0  0  0  0
   -3.5115    6.7045    7.9409 C   0  0  0  0  0  0  0  0  0  0  0  0
   -2.6090    5.8900    7.0748 C   0  0  0  0  0  0  0  0  0  0  0  0
   -2.2145    4.6255    7.4524 C   0  0  0  0  0  0  0  0  0  0  0  0
   -1.3721    3.8726    6.6388 C   0  0  0  0  0  0  0  0  0  0  0  0
   -0.9147    4.3692    5.4445 C   0  0  0  0  0  0  0  0  0  0  0  0
   -1.3137    5.6485    5.0624 C   0  0  0  0  0  0  0  0  0  0  0  0
   -2.1460    6.3893    5.8682 C   0  0  0  0  0  0  0  0  0  0  0  0
   -2.5626    7.6764    5.5098 O   0  0  0  0  0  0  0  0  0  0  0  0
   -0.9673    2.5037    7.0835 C   0  0  2  0  0  0  0  0  0  0  0  0
    0.1288    2.6873    8.1277 C   0  0  0  0  0  0  0  0  0  0  0  0
    0.5461    1.4404    8.6814 N   0  0  0  0  0  4  0  0  0  0  0  0
    1.2802    1.5017    9.9021 C   0  0  0  0  0  0  0  0  0  0  0  0
    1.0320    0.1916   10.6578 C   0  0  0  0  0  0  0  0  0  0  0  0
    2.7738    1.6003    9.6928 C   0  0  0  0  0  0  0  0  0  0  0  0
    0.8879    2.6644   10.7880 C   0  0  0  0  0  0  0  0  0  0  0  0
   -0.5516    1.8018    5.9799 O   0  0  0  0  0  0  0  0  0  0  0  0
  1  2  1  0
  2  3  1  0
  3  4  2  0
  4  5  1  0
  5  6  2  0
  6  7  1  0
  7  8  2  0
  8  9  1  0
  5 10  1  0
 10 11  1  0
 11 12  1  0
 12 13  1  0
 13 14  1  0
 13 15  1  0
 13 16  1  0
 10 17  1  6
  8  3  1  0
M  CHG  1  12   1
M  END
$$$$
