
     RDKit          3D

 17 17  0  0  0  0  0  0  0  0999 V2000
   -4.4129    6.7333    8.4821 O   0  0  0  0  0  0  0  0  0  0  0  0
   -3.0485    6.8832    8.2396 C   0  0  0  0  0  0  0  0  0  0  0  0
   -2.7111    5.9712    7.1071 C   0  0  0  0  0  0  0  0  0  0  0  0
   -2.0303    4.7935    7.3232 C   0  0  0  0  0  0  0  0  0  0  0  0
   -1.7192    3.9487    6.2611 C   0  0  0  0  0  0  0  0  0  0  0  0
   -2.0813    4.2665    4.9766 C   0  0  0  0  0  0  0  0  0  0  0  0
   -2.7701    5.4580    4.7578 C   0  0  0  0  0  0  0  0  0  0  0  0
   -3.0759    6.2900    5.8091 C   0  0  0  0  0  0  0  0  0  0  0  0
   -3.7665    7.4922    5.6189 O   0  0  0  0  0  0  0  0  0  0  0  0
   -0.9799    2.6787    6.5369 C   0  0  2  0  0  0  0  0  0  0  0  0
   -0.8612    2.5600    8.0526 C   0  0  0  0  0  0  0  0  0  0  0  0
   -0.3579    1.2841    8.4454 N   0  0  0  0  0  4  0  0  0  0  0  0
   -0.0519    1.1206    9.8283 C   0  0  0  0  0  0  0  0  0  0  0  0
    0.9617    2.2052   10.2096 C   0  0  0  0  0  0  0  0  0  0  0  0
   -1.2498    1.3165   10.7290 C   0  0  0  0  0  0  0  0  0  0  0  0
    0.5274   -0.2365   10.1649 C   0  0  0  0  0  0  0  0  0  0  0  0
    0.2350    2.7456    5.9023 O   0  0  0  0  0  0  0  0  0  0  0  0
  1  2  1  0
  2  3  1  0
  3  4  2  0
  4  5  1  0
  5  6  2  0
  6  7  1  0
  7  8  2  0
  8  9  1  0
  5 10  1  0
 10 11  1  0
 11 12  1  0
 12 13  1  0
 13 14  1  0
 13 15  1  0
 13 16  1  0
 10 17  1  6
  8  3  1  0
M  CHG  1  12   1
M  END
$$$$
