
     RDKit          3D

 17 17  0  0  0  0  0  0  0  0999 V2000
   -3.0098    6.2545    9.2312 O   0  0  0  0  0  0  0  0  0  0  0  0
   -3.4507    6.8324    8.0419 C   0  0  0  0  0  0  0  0  0  0  0  0
   -2.7849    6.0899    6.9312 C   0  0  0  0  0  0  0  0  0  0  0  0
   -2.2455    4.8395    7.1370 C   0  0  0  0  0  0  0  0  0  0  0  0
   -1.6258    4.1539    6.0956 C   0  0  0  0  0  0  0  0  0  0  0  0
   -1.5367    4.7045    4.8422 C   0  0  0  0  0  0  0  0  0  0  0  0
   -2.0824    5.9697    4.6339 C   0  0  0  0  0  0  0  0  0  0  0  0
   -2.6939    6.6439    5.6646 C   0  0  0  0  0  0  0  0  0  0  0  0
   -3.2504    7.9152    5.4842 O   0  0  0  0  0  0  0  0  0  0  0  0
   -1.0533    2.7980    6.3590 C   0  0  2  0  0  0  0  0  0  0  0  0
   -0.6148    2.7827    7.8195 C   0  0  0  0  0  0  0  0  0  0  0  0
    0.0926    1.5877    8.1467 N   0  0  0  0  0  4  0  0  0  0  0  0
    0.4820    1.4334    9.5096 C   0  0  0  0  0  0  0  0  0  0  0  0
    1.2357    0.1041    9.6280 C   0  0  0  0  0  0  0  0  0  0  0  0
    1.4327    2.5096    9.9813 C   0  0  0  0  0  0  0  0  0  0  0  0
   -0.6826    1.4283   10.4762 C   0  0  0  0  0  0  0  0  0  0  0  0
   -0.0188    2.5935    5.4808 O   0  0  0  0  0  0  0  0  0  0  0  0
  1  2  1  0
  2  3  1  0
  3  4  2  0
  4  5  1  0
  5  6  2  0
  6  7  1  0
  7  8  2  0
  8  9  1  0
  5 10  1  0
 10 11  1  0
 11 12  1  0
 12 13  1  0
 13 14  1  0
 13 15  1  0
 13 16  1  0
 10 17  1  6
  8  3  1  0
M  CHG  1  12   1
M  END
$$$$
