
     RDKit          3D

 17 17  0  0  0  0  0  0  0  0999 V2000
   -3.1664    7.1315    8.9365 O   0  0  0  0  0  0  0  0  0  0  0  0
   -3.8511    6.5054    7.8963 C   0  0  0  0  0  0  0  0  0  0  0  0
   -2.8199    5.8620    7.0297 C   0  0  0  0  0  0  0  0  0  0  0  0
   -2.3434    4.6008    7.3111 C   0  0  0  0  0  0  0  0  0  0  0  0
   -1.3812    4.0081    6.4977 C   0  0  0  0  0  0  0  0  0  0  0  0
   -0.8847    4.6629    5.3992 C   0  0  0  0  0  0  0  0  0  0  0  0
   -1.3668    5.9390    5.1144 C   0  0  0  0  0  0  0  0  0  0  0  0
   -2.3172    6.5213    5.9197 C   0  0  0  0  0  0  0  0  0  0  0  0
   -2.8192    7.8011    5.6577 O   0  0  0  0  0  0  0  0  0  0  0  0
   -0.8900    2.6371    6.8363 C   0  0  2  0  0  0  0  0  0  0  0  0
    0.0459    2.7884    8.0308 C   0  0  0  0  0  0  0  0  0  0  0  0
    0.6149    1.5389    8.4184 N   0  0  0  0  0  4  0  0  0  0  0  0
    1.2590    1.5017    9.6899 C   0  0  0  0  0  0  0  0  0  0  0  0
    2.1249    0.2378    9.7334 C   0  0  0  0  0  0  0  0  0  0  0  0
    2.1916    2.6691    9.9178 C   0  0  0  0  0  0  0  0  0  0  0  0
    0.2959    1.4806   10.8572 C   0  0  0  0  0  0  0  0  0  0  0  0
   -0.2716    2.1190    5.7261 O   0  0  0  0  0  0  0  0  0  0  0  0
  1  2  1  0
  2  3  1  0
  3  4  2  0
  4  5  1  0
  5  6  2  0
  6  7  1  0
  7  8  2  0
  8  9  1  0
  5 10  1  0
 10 11  1  0
 11 12  1  0
 12 13  1  0
 13 14  1  0
 13 15  1  0
 13 16  1  0
 10 17  1  6
  8  3  1  0
M  CHG  1  12   1
M  END
$$$$
