
     RDKit          3D

 17 17  0  0  0  0  0  0  0  0999 V2000
   -1.1712    7.7607    4.4394 O   0  0  0  0  0  0  0  0  0  0  0  0
   -1.9416    6.6292    4.1766 C   0  0  0  0  0  0  0  0  0  0  0  0
   -2.1403    5.9326    5.4818 C   0  0  0  0  0  0  0  0  0  0  0  0
   -1.6023    4.6853    5.7094 C   0  0  0  0  0  0  0  0  0  0  0  0
   -1.7928    4.0423    6.9296 C   0  0  0  0  0  0  0  0  0  0  0  0
   -2.5188    4.6324    7.9329 C   0  0  0  0  0  0  0  0  0  0  0  0
   -3.0632    5.8944    7.7027 C   0  0  0  0  0  0  0  0  0  0  0  0
   -2.8730    6.5267    6.4965 C   0  0  0  0  0  0  0  0  0  0  0  0
   -3.4078    7.7938    6.2378 O   0  0  0  0  0  0  0  0  0  0  0  0
   -1.1917    2.6892    7.1381 C   0  0  2  0  0  0  0  0  0  0  0  0
   -0.2113    2.8183    8.2990 C   0  0  0  0  0  0  0  0  0  0  0  0
    0.4792    1.5946    8.5466 N   0  0  0  0  0  4  0  0  0  0  0  0
    1.3061    1.5559    9.7075 C   0  0  0  0  0  0  0  0  0  0  0  0
    2.6164    2.2743    9.3666 C   0  0  0  0  0  0  0  0  0  0  0  0
    0.7090    2.2885   10.8870 C   0  0  0  0  0  0  0  0  0  0  0  0
    1.6210    0.1534   10.1812 C   0  0  0  0  0  0  0  0  0  0  0  0
   -0.5939    2.3024    5.9650 O   0  0  0  0  0  0  0  0  0  0  0  0
  1  2  1  0
  2  3  1  0
  3  4  2  0
  4  5  1  0
  5  6  2  0
  6  7  1  0
  7  8  2  0
  8  9  1  0
  5 10  1  0
 10 11  1  0
 11 12  1  0
 12 13  1  0
 13 14  1  0
 13 15  1  0
 13 16  1  0
 10 17  1  6
  8  3  1  0
M  CHG  1  12   1
M  END
$$$$
