
     RDKit          3D

 17 17  0  0  0  0  0  0  0  0999 V2000
   -4.9883    6.4998    7.7691 O   0  0  0  0  0  0  0  0  0  0  0  0
   -3.6723    6.9087    7.9782 C   0  0  0  0  0  0  0  0  0  0  0  0
   -2.8250    6.1322    7.0258 C   0  0  0  0  0  0  0  0  0  0  0  0
   -2.4316    4.8441    7.3141 C   0  0  0  0  0  0  0  0  0  0  0  0
   -1.6409    4.1269    6.4202 C   0  0  0  0  0  0  0  0  0  0  0  0
   -1.2345    4.6829    5.2337 C   0  0  0  0  0  0  0  0  0  0  0  0
   -1.6324    5.9861    4.9419 C   0  0  0  0  0  0  0  0  0  0  0  0
   -2.4135    6.6916    5.8268 C   0  0  0  0  0  0  0  0  0  0  0  0
   -2.8278    8.0014    5.5600 O   0  0  0  0  0  0  0  0  0  0  0  0
   -1.2355    2.7307    6.7693 C   0  0  2  0  0  0  0  0  0  0  0  0
   -0.2116    2.8389    7.8942 C   0  0  0  0  0  0  0  0  0  0  0  0
    0.3858    1.5773    8.1888 N   0  0  0  0  0  4  0  0  0  0  0  0
    1.1431    1.4994    9.3944 C   0  0  0  0  0  0  0  0  0  0  0  0
    0.1813    1.7463   10.5620 C   0  0  0  0  0  0  0  0  0  0  0  0
    1.7563    0.1371    9.6238 C   0  0  0  0  0  0  0  0  0  0  0  0
    2.2740    2.5027    9.4660 C   0  0  0  0  0  0  0  0  0  0  0  0
   -0.7360    2.1358    5.6380 O   0  0  0  0  0  0  0  0  0  0  0  0
  1  2  1  0
  2  3  1  0
  3  4  2  0
  4  5  1  0
  5  6  2  0
  6  7  1  0
  7  8  2  0
  8  9  1  0
  5 10  1  0
 10 11  1  0
 11 12  1  0
 12 13  1  0
 13 14  1  0
 13 15  1  0
 13 16  1  0
 10 17  1  6
  8  3  1  0
M  CHG  1  12   1
M  END
$$$$
