
     RDKit          3D

 17 17  0  0  0  0  0  0  0  0999 V2000
   -2.5955    6.4061    3.2727 O   0  0  0  0  0  0  0  0  0  0  0  0
   -1.6179    6.5926    4.2487 C   0  0  0  0  0  0  0  0  0  0  0  0
   -2.0373    5.7898    5.4352 C   0  0  0  0  0  0  0  0  0  0  0  0
   -1.5384    4.5237    5.6474 C   0  0  0  0  0  0  0  0  0  0  0  0
   -1.9351    3.7814    6.7565 C   0  0  0  0  0  0  0  0  0  0  0  0
   -2.8302    4.2902    7.6632 C   0  0  0  0  0  0  0  0  0  0  0  0
   -3.3352    5.5712    7.4486 C   0  0  0  0  0  0  0  0  0  0  0  0
   -2.9410    6.3016    6.3522 C   0  0  0  0  0  0  0  0  0  0  0  0
   -3.4316    7.5900    6.1117 O   0  0  0  0  0  0  0  0  0  0  0  0
   -1.3700    2.4111    6.9522 C   0  0  2  0  0  0  0  0  0  0  0  0
   -0.3524    2.5130    8.0834 C   0  0  0  0  0  0  0  0  0  0  0  0
    0.1454    1.2314    8.4640 N   0  0  0  0  0  4  0  0  0  0  0  0
    0.9894    1.1935    9.6125 C   0  0  0  0  0  0  0  0  0  0  0  0
    1.5732   -0.2202    9.7116 C   0  0  0  0  0  0  0  0  0  0  0  0
    2.1655    2.1381    9.5170 C   0  0  0  0  0  0  0  0  0  0  0  0
    0.2716    1.5226   10.9037 C   0  0  0  0  0  0  0  0  0  0  0  0
   -0.8190    2.0029    5.7634 O   0  0  0  0  0  0  0  0  0  0  0  0
  1  2  1  0
  2  3  1  0
  3  4  2  0
  4  5  1  0
  5  6  2  0
  6  7  1  0
  7  8  2  0
  8  9  1  0
  5 10  1  0
 10 11  1  0
 11 12  1  0
 12 13  1  0
 13 14  1  0
 13 15  1  0
 13 16  1  0
 10 17  1  6
  8  3  1  0
M  CHG  1  12   1
M  END
$$$$
