
     RDKit          3D

 17 17  0  0  0  0  0  0  0  0999 V2000
   -4.9785    6.3596    7.6992 O   0  0  0  0  0  0  0  0  0  0  0  0
   -3.6625    6.7079    7.9986 C   0  0  0  0  0  0  0  0  0  0  0  0
   -2.7914    5.9415    7.0595 C   0  0  0  0  0  0  0  0  0  0  0  0
   -2.4012    4.6521    7.3461 C   0  0  0  0  0  0  0  0  0  0  0  0
   -1.5882    3.9443    6.4648 C   0  0  0  0  0  0  0  0  0  0  0  0
   -1.1562    4.5112    5.2926 C   0  0  0  0  0  0  0  0  0  0  0  0
   -1.5508    5.8158    5.0025 C   0  0  0  0  0  0  0  0  0  0  0  0
   -2.3540    6.5119    5.8751 C   0  0  0  0  0  0  0  0  0  0  0  0
   -2.7656    7.8229    5.6096 O   0  0  0  0  0  0  0  0  0  0  0  0
   -1.1872    2.5463    6.8115 C   0  0  2  0  0  0  0  0  0  0  0  0
   -0.1769    2.6486    7.9492 C   0  0  0  0  0  0  0  0  0  0  0  0
    0.2341    1.3620    8.4088 N   0  0  0  0  0  4  0  0  0  0  0  0
    0.9222    1.3236    9.6570 C   0  0  0  0  0  0  0  0  0  0  0  0
    2.3597    1.7933    9.4077 C   0  0  0  0  0  0  0  0  0  0  0  0
    0.3365    2.2615   10.6874 C   0  0  0  0  0  0  0  0  0  0  0  0
    0.9548   -0.0510   10.2894 C   0  0  0  0  0  0  0  0  0  0  0  0
   -0.6742    1.9571    5.6832 O   0  0  0  0  0  0  0  0  0  0  0  0
  1  2  1  0
  2  3  1  0
  3  4  2  0
  4  5  1  0
  5  6  2  0
  6  7  1  0
  7  8  2  0
  8  9  1  0
  5 10  1  0
 10 11  1  0
 11 12  1  0
 12 13  1  0
 13 14  1  0
 13 15  1  0
 13 16  1  0
 10 17  1  6
  8  3  1  0
M  CHG  1  12   1
M  END
$$$$
