
     RDKit          3D

 17 17  0  0  0  0  0  0  0  0999 V2000
   -0.9889    6.1971    3.7525 O   0  0  0  0  0  0  0  0  0  0  0  0
   -2.2255    6.6167    4.2400 C   0  0  0  0  0  0  0  0  0  0  0  0
   -2.4596    5.8734    5.5131 C   0  0  0  0  0  0  0  0  0  0  0  0
   -1.9196    4.6223    5.7138 C   0  0  0  0  0  0  0  0  0  0  0  0
   -2.1433    3.9356    6.9042 C   0  0  0  0  0  0  0  0  0  0  0  0
   -2.9048    4.4854    7.9041 C   0  0  0  0  0  0  0  0  0  0  0  0
   -3.4513    5.7511    7.7012 C   0  0  0  0  0  0  0  0  0  0  0  0
   -3.2282    6.4267    6.5244 C   0  0  0  0  0  0  0  0  0  0  0  0
   -3.7643    7.6986    6.2935 O   0  0  0  0  0  0  0  0  0  0  0  0
   -1.5389    2.5800    7.0841 C   0  0  2  0  0  0  0  0  0  0  0  0
   -0.5145    2.7013    8.2073 C   0  0  0  0  0  0  0  0  0  0  0  0
    0.0831    1.4432    8.5162 N   0  0  0  0  0  4  0  0  0  0  0  0
    0.9298    1.4070    9.6628 C   0  0  0  0  0  0  0  0  0  0  0  0
    0.0352    1.2192   10.8931 C   0  0  0  0  0  0  0  0  0  0  0  0
    1.8950    0.2440    9.6521 C   0  0  0  0  0  0  0  0  0  0  0  0
    1.7604    2.6594    9.8432 C   0  0  0  0  0  0  0  0  0  0  0  0
   -0.9874    2.1963    5.8875 O   0  0  0  0  0  0  0  0  0  0  0  0
  1  2  1  0
  2  3  1  0
  3  4  2  0
  4  5  1  0
  5  6  2  0
  6  7  1  0
  7  8  2  0
  8  9  1  0
  5 10  1  0
 10 11  1  0
 11 12  1  0
 12 13  1  0
 13 14  1  0
 13 15  1  0
 13 16  1  0
 10 17  1  6
  8  3  1  0
M  CHG  1  12   1
M  END
$$$$
