
     RDKit          3D

 17 17  0  0  0  0  0  0  0  0999 V2000
   -5.0165    6.5647    7.5900 O   0  0  0  0  0  0  0  0  0  0  0  0
   -3.7381    6.9162    8.0203 C   0  0  0  0  0  0  0  0  0  0  0  0
   -2.7746    6.1784    7.1512 C   0  0  0  0  0  0  0  0  0  0  0  0
   -2.3921    4.8896    7.4509 C   0  0  0  0  0  0  0  0  0  0  0  0
   -1.4925    4.2087    6.6350 C   0  0  0  0  0  0  0  0  0  0  0  0
   -0.9658    4.8019    5.5158 C   0  0  0  0  0  0  0  0  0  0  0  0
   -1.3526    6.1058    5.2125 C   0  0  0  0  0  0  0  0  0  0  0  0
   -2.2414    6.7754    6.0203 C   0  0  0  0  0  0  0  0  0  0  0  0
   -2.6475    8.0850    5.7401 O   0  0  0  0  0  0  0  0  0  0  0  0
   -1.1029    2.8105    6.9938 C   0  0  2  0  0  0  0  0  0  0  0  0
   -0.0984    2.9139    8.1365 C   0  0  0  0  0  0  0  0  0  0  0  0
    0.3480    1.6289    8.5662 N   0  0  0  0  0  4  0  0  0  0  0  0
    1.0568    1.5837    9.8026 C   0  0  0  0  0  0  0  0  0  0  0  0
    2.0383    2.7608    9.8167 C   0  0  0  0  0  0  0  0  0  0  0  0
    0.1611    1.7568   11.0076 C   0  0  0  0  0  0  0  0  0  0  0  0
    1.8258    0.2973   10.0140 C   0  0  0  0  0  0  0  0  0  0  0  0
   -0.5877    2.2099    5.8726 O   0  0  0  0  0  0  0  0  0  0  0  0
  1  2  1  0
  2  3  1  0
  3  4  2  0
  4  5  1  0
  5  6  2  0
  6  7  1  0
  7  8  2  0
  8  9  1  0
  5 10  1  0
 10 11  1  0
 11 12  1  0
 12 13  1  0
 13 14  1  0
 13 15  1  0
 13 16  1  0
 10 17  1  6
  8  3  1  0
M  CHG  1  12   1
M  END
$$$$
