
     RDKit          3D

 17 17  0  0  0  0  0  0  0  0999 V2000
   -2.4447    6.4653    3.5105 O   0  0  0  0  0  0  0  0  0  0  0  0
   -1.4636    6.6564    4.4821 C   0  0  0  0  0  0  0  0  0  0  0  0
   -1.8682    5.8429    5.6664 C   0  0  0  0  0  0  0  0  0  0  0  0
   -1.3337    4.5924    5.8842 C   0  0  0  0  0  0  0  0  0  0  0  0
   -1.7169    3.8400    6.9913 C   0  0  0  0  0  0  0  0  0  0  0  0
   -2.6337    4.3231    7.8903 C   0  0  0  0  0  0  0  0  0  0  0  0
   -3.1746    5.5883    7.6701 C   0  0  0  0  0  0  0  0  0  0  0  0
   -2.7938    6.3288    6.5757 C   0  0  0  0  0  0  0  0  0  0  0  0
   -3.3203    7.6019    6.3296 O   0  0  0  0  0  0  0  0  0  0  0  0
   -1.1130    2.4872    7.1932 C   0  0  2  0  0  0  0  0  0  0  0  0
   -0.0728    2.6311    8.2990 C   0  0  0  0  0  0  0  0  0  0  0  0
    0.6101    1.4031    8.5458 N   0  0  0  0  0  4  0  0  0  0  0  0
    1.4090    1.3468    9.7254 C   0  0  0  0  0  0  0  0  0  0  0  0
    2.1021   -0.0200    9.7504 C   0  0  0  0  0  0  0  0  0  0  0  0
    2.5068    2.3855    9.7495 C   0  0  0  0  0  0  0  0  0  0  0  0
    0.6170    1.5219   11.0032 C   0  0  0  0  0  0  0  0  0  0  0  0
   -0.5792    2.0753    5.9979 O   0  0  0  0  0  0  0  0  0  0  0  0
  1  2  1  0
  2  3  1  0
  3  4  2  0
  4  5  1  0
  5  6  2  0
  6  7  1  0
  7  8  2  0
  8  9  1  0
  5 10  1  0
 10 11  1  0
 11 12  1  0
 12 13  1  0
 13 14  1  0
 13 15  1  0
 13 16  1  0
 10 17  1  6
  8  3  1  0
M  CHG  1  12   1
M  END
$$$$
