
     RDKit          3D

 30 30  0  0  0  0  0  0  0  0999 V2000
   -3.2106    5.8411   12.3132 C   0  0  0  0  0  0  0  0  0  0  0  0
   -2.3743    6.8058   11.5738 C   0  0  0  0  0  0  0  0  0  0  0  0
   -2.6113    6.9953   10.2565 C   0  0  0  0  0  0  0  0  0  0  0  0
   -1.7175    7.9787    9.6337 C   0  0  0  0  0  0  0  0  0  0  0  0
   -1.7214    9.2090   10.5607 C   0  0  0  0  0  0  0  0  0  0  0  0
   -1.0041    8.8828   11.8493 C   0  0  0  0  0  0  0  0  0  0  0  0
   -1.3053    7.4992   12.3197 C   0  0  0  0  0  0  0  0  0  0  0  0
   -2.0310    8.4771    8.2748 C   0  0  0  0  0  0  0  0  0  0  0  0
   -0.3224    7.3714    9.6006 C   0  0  0  0  0  0  0  0  0  0  0  0
   -3.6605    6.2269    9.6734 C   0  0  0  0  0  0  0  0  0  0  0  0
   -3.5956    5.0523    9.0305 C   0  0  0  0  0  0  0  0  0  0  0  0
   -4.8232    4.5734    8.4494 C   0  0  0  0  0  0  0  0  0  0  0  0
   -5.3250    3.3717    8.6955 C   0  0  0  0  0  0  0  0  0  0  0  0
   -5.3022    2.3389    7.7197 C   0  0  0  0  0  0  0  0  0  0  0  0
   -6.2417    1.5072    7.3895 C   0  0  0  0  0  0  0  0  0  0  0  0
   -6.2707    0.1011    7.3224 C   0  0  0  0  0  0  0  0  0  0  0  0
   -5.4218   -0.5885    6.5589 C   0  0  0  0  0  0  0  0  0  0  0  0
   -4.2681   -0.0376    5.8705 C   0  0  0  0  0  0  0  0  0  0  0  0
   -3.5592   -1.1077    5.1688 N   0  0  0  0  0  0  0  0  0  0  0  0
   -2.9469   -2.0657    6.0145 C   0  0  0  0  0  0  0  0  0  0  0  0
   -1.8591   -2.8893    5.4190 C   0  0  0  0  0  0  0  0  0  0  0  0
   -0.4958   -2.6695    5.9685 C   0  0  0  0  0  0  0  0  0  0  0  0
   -0.3005   -3.1969    7.3538 C   0  0  0  0  0  0  0  0  0  0  0  0
    1.1503   -3.6468    7.5428 C   0  0  0  0  0  0  0  0  0  0  0  0
    1.3395   -3.7684    9.0071 C   0  0  0  0  0  0  0  0  0  0  0  0
    1.5043   -4.8952    9.5122 O   0  0  0  0  0  0  0  0  0  0  0  0
    1.3302   -2.6045    9.8091 O   0  0  0  0  0  0  0  0  0  0  0  0
    1.3466   -4.9481    6.9468 N   0  0  0  0  0  0  0  0  0  0  0  0
   -7.2524   -0.7597    8.0798 C   0  0  0  0  0  0  0  0  0  0  0  0
   -5.6266    5.4465    7.5027 C   0  0  0  0  0  0  0  0  0  0  0  0
  1  2  1  0
  2  3  2  0
  3  4  1  0
  4  5  1  0
  5  6  1  0
  6  7  1  0
  4  8  1  0
  4  9  1  0
  3 10  1  0
 10 11  2  3
 11 12  1  0
 12 13  2  3
 13 14  1  0
 14 15  2  3
 15 16  1  0
 16 17  2  3
 17 18  1  0
 18 19  1  0
 19 20  1  0
 20 21  1  0
 21 22  1  0
 22 23  1  0
 23 24  1  0
 24 25  1  0
 25 26  2  0
 25 27  1  0
 24 28  1  0
 16 29  1  0
 12 30  1  0
  7  2  1  0
M  END
$$$$
