
     RDKit          3D

 30 30  0  0  0  0  0  0  0  0999 V2000
   -4.7484    4.8665   10.2461 C   0  0  0  0  0  0  0  0  0  0  0  0
   -5.0343    5.3487    8.8813 C   0  0  0  0  0  0  0  0  0  0  0  0
   -5.6291    4.5074    8.0063 C   0  0  0  0  0  0  0  0  0  0  0  0
   -5.8628    5.1019    6.6850 C   0  0  0  0  0  0  0  0  0  0  0  0
   -6.5187    6.4720    6.9415 C   0  0  0  0  0  0  0  0  0  0  0  0
   -5.5113    7.4166    7.5533 C   0  0  0  0  0  0  0  0  0  0  0  0
   -4.6324    6.7286    8.5435 C   0  0  0  0  0  0  0  0  0  0  0  0
   -6.7359    4.3934    5.7212 C   0  0  0  0  0  0  0  0  0  0  0  0
   -4.5049    5.3033    6.0280 C   0  0  0  0  0  0  0  0  0  0  0  0
   -5.9277    3.1950    8.4754 C   0  0  0  0  0  0  0  0  0  0  0  0
   -5.1208    2.1305    8.5886 C   0  0  0  0  0  0  0  0  0  0  0  0
   -5.7453    0.8949    8.9855 C   0  0  0  0  0  0  0  0  0  0  0  0
   -5.1892   -0.2940    8.8015 C   0  0  0  0  0  0  0  0  0  0  0  0
   -3.8548   -0.5650    9.2080 C   0  0  0  0  0  0  0  0  0  0  0  0
   -3.1417   -1.6305    9.0093 C   0  0  0  0  0  0  0  0  0  0  0  0
   -1.9941   -1.8603    8.2265 C   0  0  0  0  0  0  0  0  0  0  0  0
   -2.0433   -1.9039    6.8943 C   0  0  0  0  0  0  0  0  0  0  0  0
   -0.9701   -1.5141    5.9973 C   0  0  0  0  0  0  0  0  0  0  0  0
   -1.4717   -0.5408    5.0272 N   0  0  0  0  0  0  0  0  0  0  0  0
   -0.5524   -0.1958    4.0054 C   0  0  0  0  0  0  0  0  0  0  0  0
    0.6310   -1.0836    3.8392 C   0  0  0  0  0  0  0  0  0  0  0  0
    0.7199   -1.8221    2.5525 C   0  0  0  0  0  0  0  0  0  0  0  0
    1.9731   -1.5601    1.7803 C   0  0  0  0  0  0  0  0  0  0  0  0
    2.8083   -2.8396    1.6883 C   0  0  0  0  0  0  0  0  0  0  0  0
    2.5581   -3.3787    0.3312 C   0  0  0  0  0  0  0  0  0  0  0  0
    1.4586   -3.9048    0.0740 O   0  0  0  0  0  0  0  0  0  0  0  0
    3.5703   -3.2880   -0.6512 O   0  0  0  0  0  0  0  0  0  0  0  0
    4.2131   -2.5230    1.8027 N   0  0  0  0  0  0  0  0  0  0  0  0
   -0.6158   -2.0906    8.7971 C   0  0  0  0  0  0  0  0  0  0  0  0
   -7.1073    0.8935    9.6555 C   0  0  0  0  0  0  0  0  0  0  0  0
  1  2  1  0
  2  3  2  0
  3  4  1  0
  4  5  1  0
  5  6  1  0
  6  7  1  0
  4  8  1  0
  4  9  1  0
  3 10  1  0
 10 11  2  3
 11 12  1  0
 12 13  2  3
 13 14  1  0
 14 15  2  3
 15 16  1  0
 16 17  2  3
 17 18  1  0
 18 19  1  0
 19 20  1  0
 20 21  1  0
 21 22  1  0
 22 23  1  0
 23 24  1  0
 24 25  1  0
 25 26  2  0
 25 27  1  0
 24 28  1  0
 16 29  1  0
 12 30  1  0
  7  2  1  0
M  END
$$$$
