
     RDKit          3D

 30 30  0  0  0  0  0  0  0  0999 V2000
  -13.7315   -0.4938    7.7838 C   0  0  0  0  0  0  0  0  0  0  0  0
  -14.5818    0.6789    8.0638 C   0  0  0  0  0  0  0  0  0  0  0  0
  -14.1782    1.8931    7.6275 C   0  0  0  0  0  0  0  0  0  0  0  0
  -15.1075    2.9778    7.9647 C   0  0  0  0  0  0  0  0  0  0  0  0
  -16.5086    2.4840    7.5569 C   0  0  0  0  0  0  0  0  0  0  0  0
  -16.9504    1.3739    8.4809 C   0  0  0  0  0  0  0  0  0  0  0  0
  -15.8255    0.4572    8.8280 C   0  0  0  0  0  0  0  0  0  0  0  0
  -14.9285    4.3027    7.3278 C   0  0  0  0  0  0  0  0  0  0  0  0
  -15.0557    3.1714    9.4733 C   0  0  0  0  0  0  0  0  0  0  0  0
  -12.9365    1.9472    6.9298 C   0  0  0  0  0  0  0  0  0  0  0  0
  -11.7301    2.3278    7.3732 C   0  0  0  0  0  0  0  0  0  0  0  0
  -10.7288    2.5750    6.3679 C   0  0  0  0  0  0  0  0  0  0  0  0
   -9.5563    3.1344    6.6302 C   0  0  0  0  0  0  0  0  0  0  0  0
   -8.5021    2.4057    7.2441 C   0  0  0  0  0  0  0  0  0  0  0  0
   -7.3875    1.9903    6.7260 C   0  0  0  0  0  0  0  0  0  0  0  0
   -6.0918    2.5414    6.7191 C   0  0  0  0  0  0  0  0  0  0  0  0
   -5.1021    2.0134    5.9975 C   0  0  0  0  0  0  0  0  0  0  0  0
   -3.7582    2.5522    5.8873 C   0  0  0  0  0  0  0  0  0  0  0  0
   -2.7918    1.4546    5.8507 N   0  0  0  0  0  0  0  0  0  0  0  0
   -2.2181    1.2131    4.5777 C   0  0  0  0  0  0  0  0  0  0  0  0
   -2.7739    0.0747    3.7957 C   0  0  0  0  0  0  0  0  0  0  0  0
   -1.8640   -1.0816    3.5859 C   0  0  0  0  0  0  0  0  0  0  0  0
   -0.5591   -0.7272    2.9479 C   0  0  0  0  0  0  0  0  0  0  0  0
   -0.0036   -1.9340    2.1875 C   0  0  0  0  0  0  0  0  0  0  0  0
    1.1031   -1.4037    1.3576 C   0  0  0  0  0  0  0  0  0  0  0  0
    2.1113   -0.9271    1.9128 O   0  0  0  0  0  0  0  0  0  0  0  0
    0.9986   -1.4463   -0.0514 O   0  0  0  0  0  0  0  0  0  0  0  0
    0.5422   -2.8961    3.1168 N   0  0  0  0  0  0  0  0  0  0  0  0
   -5.6868    3.7549    7.5202 C   0  0  0  0  0  0  0  0  0  0  0  0
  -10.9726    2.1938    4.9191 C   0  0  0  0  0  0  0  0  0  0  0  0
  1  2  1  0
  2  3  2  0
  3  4  1  0
  4  5  1  0
  5  6  1  0
  6  7  1  0
  4  8  1  0
  4  9  1  0
  3 10  1  0
 10 11  2  3
 11 12  1  0
 12 13  2  3
 13 14  1  0
 14 15  2  3
 15 16  1  0
 16 17  2  3
 17 18  1  0
 18 19  1  0
 19 20  1  0
 20 21  1  0
 21 22  1  0
 22 23  1  0
 23 24  1  0
 24 25  1  0
 25 26  2  0
 25 27  1  0
 24 28  1  0
 16 29  1  0
 12 30  1  0
  7  2  1  0
M  END
$$$$
