
     RDKit          3D

 30 30  0  0  0  0  0  0  0  0999 V2000
   -2.9379    2.1698   12.1436 C   0  0  0  0  0  0  0  0  0  0  0  0
   -4.3885    1.9088   12.2102 C   0  0  0  0  0  0  0  0  0  0  0  0
   -5.0139    1.4318   11.1108 C   0  0  0  0  0  0  0  0  0  0  0  0
   -6.4521    1.2110   11.3017 C   0  0  0  0  0  0  0  0  0  0  0  0
   -6.5940    0.4270   12.6202 C   0  0  0  0  0  0  0  0  0  0  0  0
   -6.2407    1.3182   13.7875 C   0  0  0  0  0  0  0  0  0  0  0  0
   -5.0809    2.2051   13.4801 C   0  0  0  0  0  0  0  0  0  0  0  0
   -7.2054    0.4498   10.2787 C   0  0  0  0  0  0  0  0  0  0  0  0
   -7.1085    2.5761   11.4487 C   0  0  0  0  0  0  0  0  0  0  0  0
   -4.2113    1.2263    9.9510 C   0  0  0  0  0  0  0  0  0  0  0  0
   -3.9274    2.0764    8.9541 C   0  0  0  0  0  0  0  0  0  0  0  0
   -3.5374    1.4838    7.7007 C   0  0  0  0  0  0  0  0  0  0  0  0
   -4.1580    1.7283    6.5555 C   0  0  0  0  0  0  0  0  0  0  0  0
   -3.4508    1.8095    5.3256 C   0  0  0  0  0  0  0  0  0  0  0  0
   -3.7573    2.4670    4.2499 C   0  0  0  0  0  0  0  0  0  0  0  0
   -4.6103    2.1604    3.1725 C   0  0  0  0  0  0  0  0  0  0  0  0
   -4.1865    2.1759    1.9078 C   0  0  0  0  0  0  0  0  0  0  0  0
   -4.4000    1.1204    0.9337 C   0  0  0  0  0  0  0  0  0  0  0  0
   -3.6605    1.4269   -0.2907 N   0  0  0  0  0  0  0  0  0  0  0  0
   -2.8864    0.3542   -0.7988 C   0  0  0  0  0  0  0  0  0  0  0  0
   -2.0164    0.6498   -1.9702 C   0  0  0  0  0  0  0  0  0  0  0  0
   -1.0384   -0.4056   -2.3423 C   0  0  0  0  0  0  0  0  0  0  0  0
    0.3383    0.1056   -2.6229 C   0  0  0  0  0  0  0  0  0  0  0  0
    1.3364   -1.0550   -2.6280 C   0  0  0  0  0  0  0  0  0  0  0  0
    2.1040   -0.9113   -3.8870 C   0  0  0  0  0  0  0  0  0  0  0  0
    1.7993   -1.6085   -4.8734 O   0  0  0  0  0  0  0  0  0  0  0  0
    3.1703    0.0145   -3.9502 O   0  0  0  0  0  0  0  0  0  0  0  0
    2.2513   -0.9260   -1.5175 N   0  0  0  0  0  0  0  0  0  0  0  0
   -6.0683    1.8018    3.3263 C   0  0  0  0  0  0  0  0  0  0  0  0
   -2.3623    0.5260    7.6270 C   0  0  0  0  0  0  0  0  0  0  0  0
  1  2  1  0
  2  3  2  0
  3  4  1  0
  4  5  1  0
  5  6  1  0
  6  7  1  0
  4  8  1  0
  4  9  1  0
  3 10  1  0
 10 11  2  3
 11 12  1  0
 12 13  2  3
 13 14  1  0
 14 15  2  3
 15 16  1  0
 16 17  2  3
 17 18  1  0
 18 19  1  0
 19 20  1  0
 20 21  1  0
 21 22  1  0
 22 23  1  0
 23 24  1  0
 24 25  1  0
 25 26  2  0
 25 27  1  0
 24 28  1  0
 16 29  1  0
 12 30  1  0
  7  2  1  0
M  END
$$$$
