
     RDKit          3D

 30 30  0  0  0  0  0  0  0  0999 V2000
  -10.4320    0.4789    5.4746 C   0  0  0  0  0  0  0  0  0  0  0  0
  -11.7209    1.1465    5.7389 C   0  0  0  0  0  0  0  0  0  0  0  0
  -11.9106    1.7415    6.9378 C   0  0  0  0  0  0  0  0  0  0  0  0
  -13.2284    2.3716    7.0796 C   0  0  0  0  0  0  0  0  0  0  0  0
  -13.4412    3.2115    5.8059 C   0  0  0  0  0  0  0  0  0  0  0  0
  -13.6389    2.3003    4.6176 C   0  0  0  0  0  0  0  0  0  0  0  0
  -12.7439    1.1078    4.6750 C   0  0  0  0  0  0  0  0  0  0  0  0
  -13.4731    3.2782    8.2249 C   0  0  0  0  0  0  0  0  0  0  0  0
  -14.2640    1.2577    7.1331 C   0  0  0  0  0  0  0  0  0  0  0  0
  -10.8367    1.6658    7.8719 C   0  0  0  0  0  0  0  0  0  0  0  0
   -9.6832    2.3482    7.8958 C   0  0  0  0  0  0  0  0  0  0  0  0
   -8.8671    2.1827    9.0709 C   0  0  0  0  0  0  0  0  0  0  0  0
   -7.8685    1.3147    9.1473 C   0  0  0  0  0  0  0  0  0  0  0  0
   -6.5287    1.6907    8.8594 C   0  0  0  0  0  0  0  0  0  0  0  0
   -5.4637    0.9506    8.8206 C   0  0  0  0  0  0  0  0  0  0  0  0
   -4.1218    1.2507    8.5178 C   0  0  0  0  0  0  0  0  0  0  0  0
   -3.7729    1.8748    7.3918 C   0  0  0  0  0  0  0  0  0  0  0  0
   -2.4383    1.9005    6.8205 C   0  0  0  0  0  0  0  0  0  0  0  0
   -2.4374    2.7292    5.6149 N   0  0  0  0  0  0  0  0  0  0  0  0
   -2.6310    2.0156    4.4060 C   0  0  0  0  0  0  0  0  0  0  0  0
   -1.4200    1.4221    3.7753 C   0  0  0  0  0  0  0  0  0  0  0  0
   -1.1100    0.0170    4.1473 C   0  0  0  0  0  0  0  0  0  0  0  0
   -0.1495   -0.6638    3.2256 C   0  0  0  0  0  0  0  0  0  0  0  0
   -0.8912   -1.6821    2.3561 C   0  0  0  0  0  0  0  0  0  0  0  0
   -0.1049   -1.7809    1.1044 C   0  0  0  0  0  0  0  0  0  0  0  0
   -0.4140   -1.0703    0.1290 O   0  0  0  0  0  0  0  0  0  0  0  0
    0.9840   -2.6796    1.0356 O   0  0  0  0  0  0  0  0  0  0  0  0
   -0.8910   -2.9756    2.9995 N   0  0  0  0  0  0  0  0  0  0  0  0
   -2.9561    0.8948    9.4082 C   0  0  0  0  0  0  0  0  0  0  0  0
   -9.1153    3.0193   10.3127 C   0  0  0  0  0  0  0  0  0  0  0  0
  1  2  1  0
  2  3  2  0
  3  4  1  0
  4  5  1  0
  5  6  1  0
  6  7  1  0
  4  8  1  0
  4  9  1  0
  3 10  1  0
 10 11  2  3
 11 12  1  0
 12 13  2  3
 13 14  1  0
 14 15  2  3
 15 16  1  0
 16 17  2  3
 17 18  1  0
 18 19  1  0
 19 20  1  0
 20 21  1  0
 21 22  1  0
 22 23  1  0
 23 24  1  0
 24 25  1  0
 25 26  2  0
 25 27  1  0
 24 28  1  0
 16 29  1  0
 12 30  1  0
  7  2  1  0
M  END
$$$$
