
     RDKit          3D

 30 30  0  0  0  0  0  0  0  0999 V2000
   -1.9162    1.0306   10.6554 C   0  0  0  0  0  0  0  0  0  0  0  0
   -1.6893    2.4702   10.4254 C   0  0  0  0  0  0  0  0  0  0  0  0
   -2.6168    3.1722    9.7367 C   0  0  0  0  0  0  0  0  0  0  0  0
   -2.2799    4.5914    9.5754 C   0  0  0  0  0  0  0  0  0  0  0  0
   -1.8707    5.0962   10.9721 C   0  0  0  0  0  0  0  0  0  0  0  0
   -0.5469    4.4875   11.3702 C   0  0  0  0  0  0  0  0  0  0  0  0
   -0.4413    3.0599   10.9495 C   0  0  0  0  0  0  0  0  0  0  0  0
   -3.3168    5.5254    9.0796 C   0  0  0  0  0  0  0  0  0  0  0  0
   -1.0860    4.6736    8.6352 C   0  0  0  0  0  0  0  0  0  0  0  0
   -3.7543    2.4517    9.2693 C   0  0  0  0  0  0  0  0  0  0  0  0
   -4.0628    2.0695    8.0220 C   0  0  0  0  0  0  0  0  0  0  0  0
   -5.3424    1.4320    7.8473 C   0  0  0  0  0  0  0  0  0  0  0  0
   -5.7956    1.0189    6.6724 C   0  0  0  0  0  0  0  0  0  0  0  0
   -6.2361    1.9339    5.6784 C   0  0  0  0  0  0  0  0  0  0  0  0
   -5.5355    2.5912    4.8063 C   0  0  0  0  0  0  0  0  0  0  0  0
   -5.0900    2.2556    3.5135 C   0  0  0  0  0  0  0  0  0  0  0  0
   -5.0804    0.9966    3.0730 C   0  0  0  0  0  0  0  0  0  0  0  0
   -4.2906    0.4980    1.9613 C   0  0  0  0  0  0  0  0  0  0  0  0
   -3.3542   -0.5178    2.4423 N   0  0  0  0  0  0  0  0  0  0  0  0
   -3.3897   -1.7412    1.7281 C   0  0  0  0  0  0  0  0  0  0  0  0
   -2.2302   -2.0354    0.8419 C   0  0  0  0  0  0  0  0  0  0  0  0
   -1.1490   -1.0159    0.8183 C   0  0  0  0  0  0  0  0  0  0  0  0
   -0.4901   -0.8515   -0.5137 C   0  0  0  0  0  0  0  0  0  0  0  0
    0.9980   -1.1943   -0.4072 C   0  0  0  0  0  0  0  0  0  0  0  0
    1.5457   -1.0073   -1.7710 C   0  0  0  0  0  0  0  0  0  0  0  0
    2.7711   -1.1272   -1.9609 O   0  0  0  0  0  0  0  0  0  0  0  0
    0.6702   -0.6958   -2.8360 O   0  0  0  0  0  0  0  0  0  0  0  0
    1.6574   -0.2658    0.4816 N   0  0  0  0  0  0  0  0  0  0  0  0
   -4.5737    3.2597    2.5118 C   0  0  0  0  0  0  0  0  0  0  0  0
   -6.2589    1.1925    9.0332 C   0  0  0  0  0  0  0  0  0  0  0  0
  1  2  1  0
  2  3  2  0
  3  4  1  0
  4  5  1  0
  5  6  1  0
  6  7  1  0
  4  8  1  0
  4  9  1  0
  3 10  1  0
 10 11  2  3
 11 12  1  0
 12 13  2  3
 13 14  1  0
 14 15  2  3
 15 16  1  0
 16 17  2  3
 17 18  1  0
 18 19  1  0
 19 20  1  0
 20 21  1  0
 21 22  1  0
 22 23  1  0
 23 24  1  0
 24 25  1  0
 25 26  2  0
 25 27  1  0
 24 28  1  0
 16 29  1  0
 12 30  1  0
  7  2  1  0
M  END
$$$$
