
     RDKit          3D

 30 30  0  0  0  0  0  0  0  0999 V2000
   -2.1518    2.7573    9.2331 C   0  0  0  0  0  0  0  0  0  0  0  0
   -2.7448    2.4650   10.5521 C   0  0  0  0  0  0  0  0  0  0  0  0
   -4.0400    2.0827   10.6118 C   0  0  0  0  0  0  0  0  0  0  0  0
   -4.5130    1.8189   11.9758 C   0  0  0  0  0  0  0  0  0  0  0  0
   -3.4531    0.9116   12.6290 C   0  0  0  0  0  0  0  0  0  0  0  0
   -2.1837    1.6948   12.8671 C   0  0  0  0  0  0  0  0  0  0  0  0
   -1.8852    2.6276   11.7415 C   0  0  0  0  0  0  0  0  0  0  0  0
   -5.8173    1.1441   12.1674 C   0  0  0  0  0  0  0  0  0  0  0  0
   -4.5621    3.1520   12.7082 C   0  0  0  0  0  0  0  0  0  0  0  0
   -4.7458    2.0021    9.3762 C   0  0  0  0  0  0  0  0  0  0  0  0
   -5.6921    1.1325    8.9947 C   0  0  0  0  0  0  0  0  0  0  0  0
   -6.0050    1.1048    7.5892 C   0  0  0  0  0  0  0  0  0  0  0  0
   -6.4635    2.1557    6.9245 C   0  0  0  0  0  0  0  0  0  0  0  0
   -5.7740    2.6879    5.8018 C   0  0  0  0  0  0  0  0  0  0  0  0
   -5.0692    2.0664    4.9072 C   0  0  0  0  0  0  0  0  0  0  0  0
   -5.2219    1.9384    3.5133 C   0  0  0  0  0  0  0  0  0  0  0  0
   -4.5144    2.6730    2.6536 C   0  0  0  0  0  0  0  0  0  0  0  0
   -3.3054    2.2441    1.9735 C   0  0  0  0  0  0  0  0  0  0  0  0
   -3.5627    2.1375    0.5373 N   0  0  0  0  0  0  0  0  0  0  0  0
   -4.1410    0.9099    0.1292 C   0  0  0  0  0  0  0  0  0  0  0  0
   -3.2507   -0.0480   -0.5824 C   0  0  0  0  0  0  0  0  0  0  0  0
   -1.7928    0.2286   -0.5006 C   0  0  0  0  0  0  0  0  0  0  0  0
   -0.9296   -0.9842   -0.6405 C   0  0  0  0  0  0  0  0  0  0  0  0
   -1.3681   -2.0567    0.3598 C   0  0  0  0  0  0  0  0  0  0  0  0
   -1.5037   -3.3027   -0.4301 C   0  0  0  0  0  0  0  0  0  0  0  0
   -2.6354   -3.6821   -0.7867 O   0  0  0  0  0  0  0  0  0  0  0  0
   -0.3473   -4.0423   -0.7673 O   0  0  0  0  0  0  0  0  0  0  0  0
   -0.3398   -2.2557    1.3547 N   0  0  0  0  0  0  0  0  0  0  0  0
   -6.1908    0.9869    2.8545 C   0  0  0  0  0  0  0  0  0  0  0  0
   -5.8171   -0.1635    6.7768 C   0  0  0  0  0  0  0  0  0  0  0  0
  1  2  1  0
  2  3  2  0
  3  4  1  0
  4  5  1  0
  5  6  1  0
  6  7  1  0
  4  8  1  0
  4  9  1  0
  3 10  1  0
 10 11  2  3
 11 12  1  0
 12 13  2  3
 13 14  1  0
 14 15  2  3
 15 16  1  0
 16 17  2  3
 17 18  1  0
 18 19  1  0
 19 20  1  0
 20 21  1  0
 21 22  1  0
 22 23  1  0
 23 24  1  0
 24 25  1  0
 25 26  2  0
 25 27  1  0
 24 28  1  0
 16 29  1  0
 12 30  1  0
  7  2  1  0
M  END
$$$$
