
     RDKit          3D

 30 30  0  0  0  0  0  0  0  0999 V2000
   -8.4914   -0.9327    9.0722 C   0  0  0  0  0  0  0  0  0  0  0  0
   -9.0857    0.4115    8.9426 C   0  0  0  0  0  0  0  0  0  0  0  0
   -8.2707    1.4891    8.9868 C   0  0  0  0  0  0  0  0  0  0  0  0
   -8.9778    2.7673    8.8450 C   0  0  0  0  0  0  0  0  0  0  0  0
   -9.9122    2.6078    7.6306 C   0  0  0  0  0  0  0  0  0  0  0  0
  -11.0303    1.6492    7.9660 C   0  0  0  0  0  0  0  0  0  0  0  0
  -10.5515    0.5012    8.7902 C   0  0  0  0  0  0  0  0  0  0  0  0
   -8.1935    4.0015    8.6107 C   0  0  0  0  0  0  0  0  0  0  0  0
   -9.8094    2.9713   10.1031 C   0  0  0  0  0  0  0  0  0  0  0  0
   -6.8797    1.2381    9.1698 C   0  0  0  0  0  0  0  0  0  0  0  0
   -6.1135    1.4530   10.2485 C   0  0  0  0  0  0  0  0  0  0  0  0
   -4.6995    1.2366   10.0812 C   0  0  0  0  0  0  0  0  0  0  0  0
   -4.1703    0.6877    8.9972 C   0  0  0  0  0  0  0  0  0  0  0  0
   -3.1704    1.3515    8.2364 C   0  0  0  0  0  0  0  0  0  0  0  0
   -2.2017    0.8414    7.5401 C   0  0  0  0  0  0  0  0  0  0  0  0
   -1.8771    0.9341    6.1731 C   0  0  0  0  0  0  0  0  0  0  0  0
   -0.8327    0.2913    5.6487 C   0  0  0  0  0  0  0  0  0  0  0  0
   -0.8601   -1.0496    5.0923 C   0  0  0  0  0  0  0  0  0  0  0  0
   -0.5056   -0.9988    3.6739 N   0  0  0  0  0  0  0  0  0  0  0  0
   -0.8278   -2.1680    2.9410 C   0  0  0  0  0  0  0  0  0  0  0  0
   -0.6294   -2.1123    1.4666 C   0  0  0  0  0  0  0  0  0  0  0  0
    0.1112   -0.9319    0.9497 C   0  0  0  0  0  0  0  0  0  0  0  0
    0.3328   -0.9462   -0.5288 C   0  0  0  0  0  0  0  0  0  0  0  0
    1.6015   -1.7359   -0.8601 C   0  0  0  0  0  0  0  0  0  0  0  0
    1.5631   -1.9500   -2.3256 C   0  0  0  0  0  0  0  0  0  0  0  0
    2.3315   -2.7825   -2.8435 O   0  0  0  0  0  0  0  0  0  0  0  0
    0.6552   -1.2069   -3.1139 O   0  0  0  0  0  0  0  0  0  0  0  0
    2.7710   -0.9491   -0.5436 N   0  0  0  0  0  0  0  0  0  0  0  0
   -2.6505    1.7631    5.1767 C   0  0  0  0  0  0  0  0  0  0  0  0
   -3.7184    1.6404   11.1666 C   0  0  0  0  0  0  0  0  0  0  0  0
  1  2  1  0
  2  3  2  0
  3  4  1  0
  4  5  1  0
  5  6  1  0
  6  7  1  0
  4  8  1  0
  4  9  1  0
  3 10  1  0
 10 11  2  3
 11 12  1  0
 12 13  2  3
 13 14  1  0
 14 15  2  3
 15 16  1  0
 16 17  2  3
 17 18  1  0
 18 19  1  0
 19 20  1  0
 20 21  1  0
 21 22  1  0
 22 23  1  0
 23 24  1  0
 24 25  1  0
 25 26  2  0
 25 27  1  0
 24 28  1  0
 16 29  1  0
 12 30  1  0
  7  2  1  0
M  END
$$$$
