
     RDKit          3D

 30 30  0  0  0  0  0  0  0  0999 V2000
   -6.8675   -2.5673   12.0940 C   0  0  0  0  0  0  0  0  0  0  0  0
   -5.7809   -1.8814   12.8190 C   0  0  0  0  0  0  0  0  0  0  0  0
   -5.2593   -0.7518   12.2905 C   0  0  0  0  0  0  0  0  0  0  0  0
   -4.1890   -0.1621   13.1033 C   0  0  0  0  0  0  0  0  0  0  0  0
   -4.7245   -0.1132   14.5469 C   0  0  0  0  0  0  0  0  0  0  0  0
   -4.8265   -1.5135   15.1039 C   0  0  0  0  0  0  0  0  0  0  0  0
   -5.3103   -2.4861   14.0811 C   0  0  0  0  0  0  0  0  0  0  0  0
   -3.7143    1.2044   12.7862 C   0  0  0  0  0  0  0  0  0  0  0  0
   -2.9937   -1.1017   13.0358 C   0  0  0  0  0  0  0  0  0  0  0  0
   -5.8013   -0.3115   11.0480 C   0  0  0  0  0  0  0  0  0  0  0  0
   -5.5939    0.8389   10.3919 C   0  0  0  0  0  0  0  0  0  0  0  0
   -6.2829    0.9915    9.1364 C   0  0  0  0  0  0  0  0  0  0  0  0
   -5.6899    0.8545    7.9591 C   0  0  0  0  0  0  0  0  0  0  0  0
   -6.2127    1.4601    6.7848 C   0  0  0  0  0  0  0  0  0  0  0  0
   -5.6606    1.5884    5.6177 C   0  0  0  0  0  0  0  0  0  0  0  0
   -5.2185    2.7207    4.9070 C   0  0  0  0  0  0  0  0  0  0  0  0
   -4.1581    2.6794    4.0990 C   0  0  0  0  0  0  0  0  0  0  0  0
   -4.0394    1.8630    2.9041 C   0  0  0  0  0  0  0  0  0  0  0  0
   -3.9916    2.7260    1.7239 N   0  0  0  0  0  0  0  0  0  0  0  0
   -3.7858    2.0433    0.4993 C   0  0  0  0  0  0  0  0  0  0  0  0
   -2.3760    1.7446    0.1258 C   0  0  0  0  0  0  0  0  0  0  0  0
   -2.1107    0.3753   -0.3876 C   0  0  0  0  0  0  0  0  0  0  0  0
   -1.2443   -0.4563    0.5030 C   0  0  0  0  0  0  0  0  0  0  0  0
   -1.0257   -1.8371   -0.1207 C   0  0  0  0  0  0  0  0  0  0  0  0
    0.4233   -1.9112   -0.4200 C   0  0  0  0  0  0  0  0  0  0  0  0
    0.8339   -1.5777   -1.5479 O   0  0  0  0  0  0  0  0  0  0  0  0
    1.3182   -2.3589    0.5784 O   0  0  0  0  0  0  0  0  0  0  0  0
   -1.3482   -2.8695    0.8369 N   0  0  0  0  0  0  0  0  0  0  0  0
   -5.8735    4.0780    4.9903 C   0  0  0  0  0  0  0  0  0  0  0  0
   -7.7637    1.3228    9.0986 C   0  0  0  0  0  0  0  0  0  0  0  0
  1  2  1  0
  2  3  2  0
  3  4  1  0
  4  5  1  0
  5  6  1  0
  6  7  1  0
  4  8  1  0
  4  9  1  0
  3 10  1  0
 10 11  2  3
 11 12  1  0
 12 13  2  3
 13 14  1  0
 14 15  2  3
 15 16  1  0
 16 17  2  3
 17 18  1  0
 18 19  1  0
 19 20  1  0
 20 21  1  0
 21 22  1  0
 22 23  1  0
 23 24  1  0
 24 25  1  0
 25 26  2  0
 25 27  1  0
 24 28  1  0
 16 29  1  0
 12 30  1  0
  7  2  1  0
M  END
$$$$
