
     RDKit          3D

 30 30  0  0  0  0  0  0  0  0999 V2000
   -4.8840    2.2444   12.6660 C   0  0  0  0  0  0  0  0  0  0  0  0
   -4.5987    0.8018   12.7859 C   0  0  0  0  0  0  0  0  0  0  0  0
   -4.7696    0.0134   11.7012 C   0  0  0  0  0  0  0  0  0  0  0  0
   -4.4522   -1.3986   11.9447 C   0  0  0  0  0  0  0  0  0  0  0  0
   -3.0830   -1.4146   12.6506 C   0  0  0  0  0  0  0  0  0  0  0  0
   -3.2208   -0.8628   14.0499 C   0  0  0  0  0  0  0  0  0  0  0  0
   -4.1579    0.2972   14.1016 C   0  0  0  0  0  0  0  0  0  0  0  0
   -4.3393   -2.3202   10.7909 C   0  0  0  0  0  0  0  0  0  0  0  0
   -5.5150   -1.9504   12.8839 C   0  0  0  0  0  0  0  0  0  0  0  0
   -5.2306    0.6466   10.5104 C   0  0  0  0  0  0  0  0  0  0  0  0
   -6.4722    0.7093   10.0089 C   0  0  0  0  0  0  0  0  0  0  0  0
   -6.6040    1.2984    8.7013 C   0  0  0  0  0  0  0  0  0  0  0  0
   -5.7574    1.0649    7.7088 C   0  0  0  0  0  0  0  0  0  0  0  0
   -6.1888    1.0135    6.3559 C   0  0  0  0  0  0  0  0  0  0  0  0
   -5.4757    0.9878    5.2723 C   0  0  0  0  0  0  0  0  0  0  0  0
   -4.7636    1.9943    4.5923 C   0  0  0  0  0  0  0  0  0  0  0  0
   -4.4815    1.9060    3.2917 C   0  0  0  0  0  0  0  0  0  0  0  0
   -3.8045    0.7937    2.6491 C   0  0  0  0  0  0  0  0  0  0  0  0
   -3.0691    1.2770    1.4804 N   0  0  0  0  0  0  0  0  0  0  0  0
   -3.7489    1.1206    0.2470 C   0  0  0  0  0  0  0  0  0  0  0  0
   -3.2972    0.0072   -0.6321 C   0  0  0  0  0  0  0  0  0  0  0  0
   -1.9337    0.1398   -1.2083 C   0  0  0  0  0  0  0  0  0  0  0  0
   -1.4661   -1.0646   -1.9608 C   0  0  0  0  0  0  0  0  0  0  0  0
   -0.0700   -0.8128   -2.5359 C   0  0  0  0  0  0  0  0  0  0  0  0
    0.3241   -2.0831   -3.1886 C   0  0  0  0  0  0  0  0  0  0  0  0
   -0.5463   -2.7866   -3.7358 O   0  0  0  0  0  0  0  0  0  0  0  0
    1.6813   -2.4777   -3.1808 O   0  0  0  0  0  0  0  0  0  0  0  0
   -0.1289    0.2202   -3.5441 N   0  0  0  0  0  0  0  0  0  0  0  0
   -4.2415    3.2490    5.2492 C   0  0  0  0  0  0  0  0  0  0  0  0
   -7.7525    2.2393    8.3859 C   0  0  0  0  0  0  0  0  0  0  0  0
  1  2  1  0
  2  3  2  0
  3  4  1  0
  4  5  1  0
  5  6  1  0
  6  7  1  0
  4  8  1  0
  4  9  1  0
  3 10  1  0
 10 11  2  3
 11 12  1  0
 12 13  2  3
 13 14  1  0
 14 15  2  3
 15 16  1  0
 16 17  2  3
 17 18  1  0
 18 19  1  0
 19 20  1  0
 20 21  1  0
 21 22  1  0
 22 23  1  0
 23 24  1  0
 24 25  1  0
 25 26  2  0
 25 27  1  0
 24 28  1  0
 16 29  1  0
 12 30  1  0
  7  2  1  0
M  END
$$$$
