
     RDKit          3D

 30 30  0  0  0  0  0  0  0  0999 V2000
   -9.0048    2.5184    9.9978 C   0  0  0  0  0  0  0  0  0  0  0  0
   -8.1517    1.5011   10.6413 C   0  0  0  0  0  0  0  0  0  0  0  0
   -7.0096    1.1255   10.0233 C   0  0  0  0  0  0  0  0  0  0  0  0
   -6.2478    0.1113   10.7612 C   0  0  0  0  0  0  0  0  0  0  0  0
   -6.1600    0.6145   12.2146 C   0  0  0  0  0  0  0  0  0  0  0  0
   -7.5208    0.5415   12.8659 C   0  0  0  0  0  0  0  0  0  0  0  0
   -8.6104    0.9343   11.9252 C   0  0  0  0  0  0  0  0  0  0  0  0
   -4.8616   -0.1954   10.3397 C   0  0  0  0  0  0  0  0  0  0  0  0
   -7.0484   -1.1823   10.7185 C   0  0  0  0  0  0  0  0  0  0  0  0
   -6.7206    1.7439    8.7720 C   0  0  0  0  0  0  0  0  0  0  0  0
   -5.9438    2.8042    8.5090 C   0  0  0  0  0  0  0  0  0  0  0  0
   -5.8090    3.1691    7.1223 C   0  0  0  0  0  0  0  0  0  0  0  0
   -4.8731    2.6722    6.3263 C   0  0  0  0  0  0  0  0  0  0  0  0
   -3.5192    2.5626    6.7437 C   0  0  0  0  0  0  0  0  0  0  0  0
   -2.5125    2.0347    6.1181 C   0  0  0  0  0  0  0  0  0  0  0  0
   -2.4447    1.1661    5.0119 C   0  0  0  0  0  0  0  0  0  0  0  0
   -2.2837   -0.1503    5.1547 C   0  0  0  0  0  0  0  0  0  0  0  0
   -1.6736   -1.0361    4.1794 C   0  0  0  0  0  0  0  0  0  0  0  0
   -0.3597   -1.4635    4.6601 N   0  0  0  0  0  0  0  0  0  0  0  0
    0.7157   -1.1658    3.7866 C   0  0  0  0  0  0  0  0  0  0  0  0
    0.6634   -1.7700    2.4270 C   0  0  0  0  0  0  0  0  0  0  0  0
    1.1961   -0.9353    1.3187 C   0  0  0  0  0  0  0  0  0  0  0  0
    2.3177   -1.5680    0.5590 C   0  0  0  0  0  0  0  0  0  0  0  0
    2.2012   -1.2252   -0.9283 C   0  0  0  0  0  0  0  0  0  0  0  0
    3.5141   -1.5746   -1.5191 C   0  0  0  0  0  0  0  0  0  0  0  0
    4.5552   -1.1109   -1.0161 O   0  0  0  0  0  0  0  0  0  0  0  0
    3.5660   -2.4287   -2.6441 O   0  0  0  0  0  0  0  0  0  0  0  0
    1.1877   -2.0475   -1.5478 N   0  0  0  0  0  0  0  0  0  0  0  0
   -2.5312    1.6211    3.5754 C   0  0  0  0  0  0  0  0  0  0  0  0
   -6.7604    4.1659    6.4857 C   0  0  0  0  0  0  0  0  0  0  0  0
  1  2  1  0
  2  3  2  0
  3  4  1  0
  4  5  1  0
  5  6  1  0
  6  7  1  0
  4  8  1  0
  4  9  1  0
  3 10  1  0
 10 11  2  3
 11 12  1  0
 12 13  2  3
 13 14  1  0
 14 15  2  3
 15 16  1  0
 16 17  2  3
 17 18  1  0
 18 19  1  0
 19 20  1  0
 20 21  1  0
 21 22  1  0
 22 23  1  0
 23 24  1  0
 24 25  1  0
 25 26  2  0
 25 27  1  0
 24 28  1  0
 16 29  1  0
 12 30  1  0
  7  2  1  0
M  END
$$$$
