
     RDKit          3D

 30 30  0  0  0  0  0  0  0  0999 V2000
   -4.9976   -1.0443   10.7647 C   0  0  0  0  0  0  0  0  0  0  0  0
   -4.1652   -0.1410   11.5820 C   0  0  0  0  0  0  0  0  0  0  0  0
   -4.0324    1.1475   11.1954 C   0  0  0  0  0  0  0  0  0  0  0  0
   -3.1838    1.9449   12.0886 C   0  0  0  0  0  0  0  0  0  0  0  0
   -3.6795    1.6591   13.5189 C   0  0  0  0  0  0  0  0  0  0  0  0
   -3.3287    0.2429   13.9101 C   0  0  0  0  0  0  0  0  0  0  0  0
   -3.5049   -0.7086   12.7743 C   0  0  0  0  0  0  0  0  0  0  0  0
   -3.1653    3.4181   11.9384 C   0  0  0  0  0  0  0  0  0  0  0  0
   -1.7566    1.4395   11.9346 C   0  0  0  0  0  0  0  0  0  0  0  0
   -4.7090    1.5355   10.0024 C   0  0  0  0  0  0  0  0  0  0  0  0
   -5.4586    0.7956    9.1733 C   0  0  0  0  0  0  0  0  0  0  0  0
   -5.9116    1.4452    7.9703 C   0  0  0  0  0  0  0  0  0  0  0  0
   -5.2833    1.3445    6.8077 C   0  0  0  0  0  0  0  0  0  0  0  0
   -5.7300    2.0446    5.6546 C   0  0  0  0  0  0  0  0  0  0  0  0
   -5.6511    1.6967    4.4072 C   0  0  0  0  0  0  0  0  0  0  0  0
   -5.9905    2.3733    3.2199 C   0  0  0  0  0  0  0  0  0  0  0  0
   -5.0648    2.8902    2.4107 C   0  0  0  0  0  0  0  0  0  0  0  0
   -5.1614    2.9755    0.9644 C   0  0  0  0  0  0  0  0  0  0  0  0
   -4.7094    1.7183    0.3682 N   0  0  0  0  0  0  0  0  0  0  0  0
   -3.3225    1.6634    0.0829 C   0  0  0  0  0  0  0  0  0  0  0  0
   -2.6091    0.4113    0.4567 C   0  0  0  0  0  0  0  0  0  0  0  0
   -2.2467   -0.4952   -0.6639 C   0  0  0  0  0  0  0  0  0  0  0  0
   -0.8419   -1.0042   -0.6111 C   0  0  0  0  0  0  0  0  0  0  0  0
   -0.8325   -2.4694   -0.1682 C   0  0  0  0  0  0  0  0  0  0  0  0
    0.4924   -2.9961   -0.5708 C   0  0  0  0  0  0  0  0  0  0  0  0
    0.6506   -3.4399   -1.7240 O   0  0  0  0  0  0  0  0  0  0  0  0
    1.5568   -2.9872    0.3591 O   0  0  0  0  0  0  0  0  0  0  0  0
   -0.9396   -2.5524    1.2701 N   0  0  0  0  0  0  0  0  0  0  0  0
   -7.4079    2.5943    2.7505 C   0  0  0  0  0  0  0  0  0  0  0  0
   -7.1672    2.2981    7.9741 C   0  0  0  0  0  0  0  0  0  0  0  0
  1  2  1  0
  2  3  2  0
  3  4  1  0
  4  5  1  0
  5  6  1  0
  6  7  1  0
  4  8  1  0
  4  9  1  0
  3 10  1  0
 10 11  2  3
 11 12  1  0
 12 13  2  3
 13 14  1  0
 14 15  2  3
 15 16  1  0
 16 17  2  3
 17 18  1  0
 18 19  1  0
 19 20  1  0
 20 21  1  0
 21 22  1  0
 22 23  1  0
 23 24  1  0
 24 25  1  0
 25 26  2  0
 25 27  1  0
 24 28  1  0
 16 29  1  0
 12 30  1  0
  7  2  1  0
M  END
$$$$
