
     RDKit          3D

 30 30  0  0  0  0  0  0  0  0999 V2000
   -3.4725    5.7022    7.6067 C   0  0  0  0  0  0  0  0  0  0  0  0
   -4.5170    6.3331    6.7773 C   0  0  0  0  0  0  0  0  0  0  0  0
   -5.3024    5.5441    6.0106 C   0  0  0  0  0  0  0  0  0  0  0  0
   -6.3029    6.2864    5.2349 C   0  0  0  0  0  0  0  0  0  0  0  0
   -6.9822    7.2521    6.2243 C   0  0  0  0  0  0  0  0  0  0  0  0
   -6.0120    8.3358    6.6315 C   0  0  0  0  0  0  0  0  0  0  0  0
   -4.6305    7.8045    6.8200 C   0  0  0  0  0  0  0  0  0  0  0  0
   -7.3918    5.5401    4.5635 C   0  0  0  0  0  0  0  0  0  0  0  0
   -5.5584    7.0851    4.1747 C   0  0  0  0  0  0  0  0  0  0  0  0
   -5.0478    4.1424    6.0558 C   0  0  0  0  0  0  0  0  0  0  0  0
   -4.4446    3.3600    5.1498 C   0  0  0  0  0  0  0  0  0  0  0  0
   -4.4472    1.9461    5.4238 C   0  0  0  0  0  0  0  0  0  0  0  0
   -4.7368    1.4353    6.6120 C   0  0  0  0  0  0  0  0  0  0  0  0
   -3.8941    0.4779    7.2385 C   0  0  0  0  0  0  0  0  0  0  0  0
   -3.5476    0.3877    8.4855 C   0  0  0  0  0  0  0  0  0  0  0  0
   -3.3382   -0.7236    9.3244 C   0  0  0  0  0  0  0  0  0  0  0  0
   -2.5325   -1.7289    8.9792 C   0  0  0  0  0  0  0  0  0  0  0  0
   -1.8897   -2.6491    9.9003 C   0  0  0  0  0  0  0  0  0  0  0  0
   -0.5412   -2.1725   10.2076 N   0  0  0  0  0  0  0  0  0  0  0  0
    0.4540   -2.5746    9.2825 C   0  0  0  0  0  0  0  0  0  0  0  0
   -0.0200   -3.1012    7.9731 C   0  0  0  0  0  0  0  0  0  0  0  0
    0.5631   -2.4665    6.7623 C   0  0  0  0  0  0  0  0  0  0  0  0
    1.1667   -3.4325    5.7938 C   0  0  0  0  0  0  0  0  0  0  0  0
    0.3074   -3.5118    4.5296 C   0  0  0  0  0  0  0  0  0  0  0  0
    0.9864   -2.6492    3.5347 C   0  0  0  0  0  0  0  0  0  0  0  0
    0.3183   -2.1164    2.6283 O   0  0  0  0  0  0  0  0  0  0  0  0
    2.3817   -2.4437    3.6288 O   0  0  0  0  0  0  0  0  0  0  0  0
    0.2918   -4.8657    4.0259 N   0  0  0  0  0  0  0  0  0  0  0  0
   -3.9984   -0.9011   10.6701 C   0  0  0  0  0  0  0  0  0  0  0  0
   -4.1124    0.9435    4.3345 C   0  0  0  0  0  0  0  0  0  0  0  0
  1  2  1  0
  2  3  2  0
  3  4  1  0
  4  5  1  0
  5  6  1  0
  6  7  1  0
  4  8  1  0
  4  9  1  0
  3 10  1  0
 10 11  2  3
 11 12  1  0
 12 13  2  3
 13 14  1  0
 14 15  2  3
 15 16  1  0
 16 17  2  3
 17 18  1  0
 18 19  1  0
 19 20  1  0
 20 21  1  0
 21 22  1  0
 22 23  1  0
 23 24  1  0
 24 25  1  0
 25 26  2  0
 25 27  1  0
 24 28  1  0
 16 29  1  0
 12 30  1  0
  7  2  1  0
M  END
$$$$
