
     RDKit          3D

 30 30  0  0  0  0  0  0  0  0999 V2000
   -8.7674    2.0662   10.2918 C   0  0  0  0  0  0  0  0  0  0  0  0
   -9.7448    2.0235    9.1874 C   0  0  0  0  0  0  0  0  0  0  0  0
   -9.3409    2.3821    7.9482 C   0  0  0  0  0  0  0  0  0  0  0  0
  -10.4006    2.2960    6.9365 C   0  0  0  0  0  0  0  0  0  0  0  0
  -11.0566    0.9142    7.1194 C   0  0  0  0  0  0  0  0  0  0  0  0
  -11.8346    0.8829    8.4136 C   0  0  0  0  0  0  0  0  0  0  0  0
  -11.1241    1.6060    9.5084 C   0  0  0  0  0  0  0  0  0  0  0  0
  -10.0386    2.4016    5.5043 C   0  0  0  0  0  0  0  0  0  0  0  0
  -11.4167    3.3861    7.2454 C   0  0  0  0  0  0  0  0  0  0  0  0
   -7.9830    2.7911    7.8060 C   0  0  0  0  0  0  0  0  0  0  0  0
   -7.4899    3.9634    7.3824 C   0  0  0  0  0  0  0  0  0  0  0  0
   -6.0548    4.0676    7.3195 C   0  0  0  0  0  0  0  0  0  0  0  0
   -5.3931    4.3443    6.2051 C   0  0  0  0  0  0  0  0  0  0  0  0
   -5.2792    3.3990    5.1502 C   0  0  0  0  0  0  0  0  0  0  0  0
   -4.5734    3.4696    4.0638 C   0  0  0  0  0  0  0  0  0  0  0  0
   -4.3195    2.5307    3.0458 C   0  0  0  0  0  0  0  0  0  0  0  0
   -3.1083    2.0063    2.8528 C   0  0  0  0  0  0  0  0  0  0  0  0
   -2.7724    0.5977    2.9593 C   0  0  0  0  0  0  0  0  0  0  0  0
   -1.5964    0.4378    3.8146 N   0  0  0  0  0  0  0  0  0  0  0  0
   -1.7115   -0.5785    4.7953 C   0  0  0  0  0  0  0  0  0  0  0  0
   -0.6463   -0.6331    5.8339 C   0  0  0  0  0  0  0  0  0  0  0  0
   -0.7498   -1.7398    6.8205 C   0  0  0  0  0  0  0  0  0  0  0  0
    0.5308   -2.4755    7.0535 C   0  0  0  0  0  0  0  0  0  0  0  0
    0.5077   -3.1428    8.4310 C   0  0  0  0  0  0  0  0  0  0  0  0
    0.6742   -2.0410    9.4073 C   0  0  0  0  0  0  0  0  0  0  0  0
    1.5620   -1.1869    9.2218 O   0  0  0  0  0  0  0  0  0  0  0  0
   -0.1764   -1.9752   10.5342 O   0  0  0  0  0  0  0  0  0  0  0  0
   -0.7762   -3.7648    8.6581 N   0  0  0  0  0  0  0  0  0  0  0  0
   -5.3638    2.0360    2.0747 C   0  0  0  0  0  0  0  0  0  0  0  0
   -5.2064    3.8632    8.5614 C   0  0  0  0  0  0  0  0  0  0  0  0
  1  2  1  0
  2  3  2  0
  3  4  1  0
  4  5  1  0
  5  6  1  0
  6  7  1  0
  4  8  1  0
  4  9  1  0
  3 10  1  0
 10 11  2  3
 11 12  1  0
 12 13  2  3
 13 14  1  0
 14 15  2  3
 15 16  1  0
 16 17  2  3
 17 18  1  0
 18 19  1  0
 19 20  1  0
 20 21  1  0
 21 22  1  0
 22 23  1  0
 23 24  1  0
 24 25  1  0
 25 26  2  0
 25 27  1  0
 24 28  1  0
 16 29  1  0
 12 30  1  0
  7  2  1  0
M  END
$$$$
