
     RDKit          3D

 30 30  0  0  0  0  0  0  0  0999 V2000
   -7.1272    4.7329    2.6736 C   0  0  0  0  0  0  0  0  0  0  0  0
   -6.5309    3.6102    1.9247 C   0  0  0  0  0  0  0  0  0  0  0  0
   -5.8326    2.6736    2.6048 C   0  0  0  0  0  0  0  0  0  0  0  0
   -5.2918    1.6088    1.7519 C   0  0  0  0  0  0  0  0  0  0  0  0
   -6.4558    1.1443    0.8562 C   0  0  0  0  0  0  0  0  0  0  0  0
   -6.7968    2.2243   -0.1431 C   0  0  0  0  0  0  0  0  0  0  0  0
   -6.7181    3.5866    0.4604 C   0  0  0  0  0  0  0  0  0  0  0  0
   -4.7389    0.3899    2.3859 C   0  0  0  0  0  0  0  0  0  0  0  0
   -4.2004    2.2250    0.8886 C   0  0  0  0  0  0  0  0  0  0  0  0
   -5.7157    2.8538    4.0138 C   0  0  0  0  0  0  0  0  0  0  0  0
   -5.7980    1.9444    4.9953 C   0  0  0  0  0  0  0  0  0  0  0  0
   -5.5866    2.4292    6.3348 C   0  0  0  0  0  0  0  0  0  0  0  0
   -4.7416    1.8675    7.1875 C   0  0  0  0  0  0  0  0  0  0  0  0
   -5.0257    1.7887    8.5776 C   0  0  0  0  0  0  0  0  0  0  0  0
   -4.3464    1.2072    9.5177 C   0  0  0  0  0  0  0  0  0  0  0  0
   -4.0914   -0.1505    9.7900 C   0  0  0  0  0  0  0  0  0  0  0  0
   -2.8515   -0.6267    9.9135 C   0  0  0  0  0  0  0  0  0  0  0  0
   -2.4753   -1.8180   10.6535 C   0  0  0  0  0  0  0  0  0  0  0  0
   -1.2716   -2.4022   10.0622 N   0  0  0  0  0  0  0  0  0  0  0  0
   -0.2210   -1.4810    9.8263 C   0  0  0  0  0  0  0  0  0  0  0  0
    0.8526   -1.4088   10.8551 C   0  0  0  0  0  0  0  0  0  0  0  0
    1.9688   -2.3787   10.7058 C   0  0  0  0  0  0  0  0  0  0  0  0
    2.9614   -2.3480   11.8235 C   0  0  0  0  0  0  0  0  0  0  0  0
    4.3578   -2.0441   11.2749 C   0  0  0  0  0  0  0  0  0  0  0  0
    5.2972   -2.4036   12.3625 C   0  0  0  0  0  0  0  0  0  0  0  0
    5.9848   -1.5132   12.8976 O   0  0  0  0  0  0  0  0  0  0  0  0
    5.3992   -3.7511   12.7770 O   0  0  0  0  0  0  0  0  0  0  0  0
    4.6354   -2.8858   10.1341 N   0  0  0  0  0  0  0  0  0  0  0  0
   -5.1686   -1.1948    9.9550 C   0  0  0  0  0  0  0  0  0  0  0  0
   -6.3395    3.6425    6.8493 C   0  0  0  0  0  0  0  0  0  0  0  0
  1  2  1  0
  2  3  2  0
  3  4  1  0
  4  5  1  0
  5  6  1  0
  6  7  1  0
  4  8  1  0
  4  9  1  0
  3 10  1  0
 10 11  2  3
 11 12  1  0
 12 13  2  3
 13 14  1  0
 14 15  2  3
 15 16  1  0
 16 17  2  3
 17 18  1  0
 18 19  1  0
 19 20  1  0
 20 21  1  0
 21 22  1  0
 22 23  1  0
 23 24  1  0
 24 25  1  0
 25 26  2  0
 25 27  1  0
 24 28  1  0
 16 29  1  0
 12 30  1  0
  7  2  1  0
M  END
$$$$
