
     RDKit          3D

 30 30  0  0  0  0  0  0  0  0999 V2000
  -10.2296    1.9774    5.1161 C   0  0  0  0  0  0  0  0  0  0  0  0
  -10.8963    1.8631    6.4273 C   0  0  0  0  0  0  0  0  0  0  0  0
  -10.3353    2.4707    7.4966 C   0  0  0  0  0  0  0  0  0  0  0  0
  -11.0911    2.2869    8.7410 C   0  0  0  0  0  0  0  0  0  0  0  0
  -12.5586    2.6120    8.4032 C   0  0  0  0  0  0  0  0  0  0  0  0
  -13.1298    1.5363    7.5099 C   0  0  0  0  0  0  0  0  0  0  0  0
  -12.1384    1.0680    6.4978 C   0  0  0  0  0  0  0  0  0  0  0  0
  -10.7418    3.1077    9.9232 C   0  0  0  0  0  0  0  0  0  0  0  0
  -10.9727    0.8218    9.1353 C   0  0  0  0  0  0  0  0  0  0  0  0
   -9.1173    3.1760    7.2715 C   0  0  0  0  0  0  0  0  0  0  0  0
   -7.8533    2.7581    7.4290 C   0  0  0  0  0  0  0  0  0  0  0  0
   -6.8219    3.7253    7.1549 C   0  0  0  0  0  0  0  0  0  0  0  0
   -5.5322    3.4884    7.3471 C   0  0  0  0  0  0  0  0  0  0  0  0
   -4.6875    3.0535    6.2904 C   0  0  0  0  0  0  0  0  0  0  0  0
   -4.2002    1.8715    6.0690 C   0  0  0  0  0  0  0  0  0  0  0  0
   -3.1837    1.1390    6.7114 C   0  0  0  0  0  0  0  0  0  0  0  0
   -2.6749    0.0238    6.1855 C   0  0  0  0  0  0  0  0  0  0  0  0
   -1.3702   -0.5346    6.4926 C   0  0  0  0  0  0  0  0  0  0  0  0
   -0.4715   -0.3336    5.3559 N   0  0  0  0  0  0  0  0  0  0  0  0
   -0.9729   -0.7998    4.1152 C   0  0  0  0  0  0  0  0  0  0  0  0
   -0.1034   -0.6031    2.9229 C   0  0  0  0  0  0  0  0  0  0  0  0
    0.8793   -1.6826    2.6440 C   0  0  0  0  0  0  0  0  0  0  0  0
    1.4062   -1.6857    1.2448 C   0  0  0  0  0  0  0  0  0  0  0  0
    2.8607   -2.1627    1.2344 C   0  0  0  0  0  0  0  0  0  0  0  0
    2.8290   -3.5409    1.7768 C   0  0  0  0  0  0  0  0  0  0  0  0
    3.7970   -3.9613    2.4387 O   0  0  0  0  0  0  0  0  0  0  0  0
    1.7013   -4.3582    1.5353 O   0  0  0  0  0  0  0  0  0  0  0  0
    3.3543   -2.2164   -0.1222 N   0  0  0  0  0  0  0  0  0  0  0  0
   -2.5815    1.5199    8.0420 C   0  0  0  0  0  0  0  0  0  0  0  0
   -7.1706    5.1002    6.6148 C   0  0  0  0  0  0  0  0  0  0  0  0
  1  2  1  0
  2  3  2  0
  3  4  1  0
  4  5  1  0
  5  6  1  0
  6  7  1  0
  4  8  1  0
  4  9  1  0
  3 10  1  0
 10 11  2  3
 11 12  1  0
 12 13  2  3
 13 14  1  0
 14 15  2  3
 15 16  1  0
 16 17  2  3
 17 18  1  0
 18 19  1  0
 19 20  1  0
 20 21  1  0
 21 22  1  0
 22 23  1  0
 23 24  1  0
 24 25  1  0
 25 26  2  0
 25 27  1  0
 24 28  1  0
 16 29  1  0
 12 30  1  0
  7  2  1  0
M  END
$$$$
