
     RDKit          3D

 30 30  0  0  0  0  0  0  0  0999 V2000
   -9.7633   -0.3921    9.2031 C   0  0  0  0  0  0  0  0  0  0  0  0
  -10.6434    0.6435    9.7774 C   0  0  0  0  0  0  0  0  0  0  0  0
  -10.5145    1.9180    9.3460 C   0  0  0  0  0  0  0  0  0  0  0  0
  -11.4449    2.8534    9.9887 C   0  0  0  0  0  0  0  0  0  0  0  0
  -12.8353    2.1944    9.9137 C   0  0  0  0  0  0  0  0  0  0  0  0
  -12.8857    0.9969   10.8331 C   0  0  0  0  0  0  0  0  0  0  0  0
  -11.6089    0.2252   10.8131 C   0  0  0  0  0  0  0  0  0  0  0  0
  -11.5966    4.2162    9.4292 C   0  0  0  0  0  0  0  0  0  0  0  0
  -11.0240    2.9882   11.4450 C   0  0  0  0  0  0  0  0  0  0  0  0
   -9.5137    2.1673    8.3622 C   0  0  0  0  0  0  0  0  0  0  0  0
   -8.5297    3.0776    8.3646 C   0  0  0  0  0  0  0  0  0  0  0  0
   -7.6450    3.0651    7.2282 C   0  0  0  0  0  0  0  0  0  0  0  0
   -6.5466    2.3259    7.1687 C   0  0  0  0  0  0  0  0  0  0  0  0
   -5.8610    2.1048    5.9438 C   0  0  0  0  0  0  0  0  0  0  0  0
   -4.6172    1.7902    5.7501 C   0  0  0  0  0  0  0  0  0  0  0  0
   -3.7406    2.0421    4.6775 C   0  0  0  0  0  0  0  0  0  0  0  0
   -2.7465    1.2092    4.3655 C   0  0  0  0  0  0  0  0  0  0  0  0
   -2.2545    0.1312    5.2047 C   0  0  0  0  0  0  0  0  0  0  0  0
   -0.7956    0.0686    5.1166 N   0  0  0  0  0  0  0  0  0  0  0  0
   -0.2826   -1.1733    4.6666 C   0  0  0  0  0  0  0  0  0  0  0  0
   -0.4106   -1.4655    3.2124 C   0  0  0  0  0  0  0  0  0  0  0  0
    0.8509   -1.4449    2.4269 C   0  0  0  0  0  0  0  0  0  0  0  0
    0.6670   -1.6974    0.9647 C   0  0  0  0  0  0  0  0  0  0  0  0
    1.9797   -1.4409    0.2203 C   0  0  0  0  0  0  0  0  0  0  0  0
    2.8476   -2.5988    0.5380 C   0  0  0  0  0  0  0  0  0  0  0  0
    3.3050   -3.2943   -0.3889 O   0  0  0  0  0  0  0  0  0  0  0  0
    3.1437   -2.8971    1.8875 O   0  0  0  0  0  0  0  0  0  0  0  0
    1.7451   -1.4229   -1.2050 N   0  0  0  0  0  0  0  0  0  0  0  0
   -3.8198    3.2616    3.7916 C   0  0  0  0  0  0  0  0  0  0  0  0
   -7.9367    3.9191    6.0077 C   0  0  0  0  0  0  0  0  0  0  0  0
  1  2  1  0
  2  3  2  0
  3  4  1  0
  4  5  1  0
  5  6  1  0
  6  7  1  0
  4  8  1  0
  4  9  1  0
  3 10  1  0
 10 11  2  3
 11 12  1  0
 12 13  2  3
 13 14  1  0
 14 15  2  3
 15 16  1  0
 16 17  2  3
 17 18  1  0
 18 19  1  0
 19 20  1  0
 20 21  1  0
 21 22  1  0
 22 23  1  0
 23 24  1  0
 24 25  1  0
 25 26  2  0
 25 27  1  0
 24 28  1  0
 16 29  1  0
 12 30  1  0
  7  2  1  0
M  END
$$$$
