
     RDKit          3D

 30 30  0  0  0  0  0  0  0  0999 V2000
  -12.7743    3.4194    6.1900 C   0  0  0  0  0  0  0  0  0  0  0  0
  -13.4500    2.2013    6.6764 C   0  0  0  0  0  0  0  0  0  0  0  0
  -12.8433    1.4579    7.6285 C   0  0  0  0  0  0  0  0  0  0  0  0
  -13.6134    0.2752    8.0307 C   0  0  0  0  0  0  0  0  0  0  0  0
  -15.0492    0.7678    8.2937 C   0  0  0  0  0  0  0  0  0  0  0  0
  -15.7043    1.1587    6.9900 C   0  0  0  0  0  0  0  0  0  0  0  0
  -14.7526    1.8533    6.0746 C   0  0  0  0  0  0  0  0  0  0  0  0
  -13.2005   -0.4759    9.2384 C   0  0  0  0  0  0  0  0  0  0  0  0
  -13.6147   -0.6908    6.8548 C   0  0  0  0  0  0  0  0  0  0  0  0
  -11.5718    1.9107    8.0867 C   0  0  0  0  0  0  0  0  0  0  0  0
  -10.4516    2.1428    7.3881 C   0  0  0  0  0  0  0  0  0  0  0  0
   -9.2560    2.3755    8.1567 C   0  0  0  0  0  0  0  0  0  0  0  0
   -8.0372    2.1220    7.7020 C   0  0  0  0  0  0  0  0  0  0  0  0
   -7.8239    1.5318    6.4270 C   0  0  0  0  0  0  0  0  0  0  0  0
   -6.7166    1.1115    5.8973 C   0  0  0  0  0  0  0  0  0  0  0  0
   -5.7508    1.7580    5.1024 C   0  0  0  0  0  0  0  0  0  0  0  0
   -4.4446    1.6555    5.3526 C   0  0  0  0  0  0  0  0  0  0  0  0
   -3.3807    2.1529    4.4988 C   0  0  0  0  0  0  0  0  0  0  0  0
   -2.3238    1.1466    4.3964 N   0  0  0  0  0  0  0  0  0  0  0  0
   -1.6642    0.8548    5.6162 C   0  0  0  0  0  0  0  0  0  0  0  0
   -0.6284   -0.2139    5.5805 C   0  0  0  0  0  0  0  0  0  0  0  0
   -0.4231   -0.9692    6.8439 C   0  0  0  0  0  0  0  0  0  0  0  0
    0.9567   -0.8562    7.4086 C   0  0  0  0  0  0  0  0  0  0  0  0
    1.0448   -1.6210    8.7317 C   0  0  0  0  0  0  0  0  0  0  0  0
    1.2867   -3.0337    8.3568 C   0  0  0  0  0  0  0  0  0  0  0  0
    2.4087   -3.5369    8.5558 O   0  0  0  0  0  0  0  0  0  0  0  0
    0.2410   -3.7894    7.7794 O   0  0  0  0  0  0  0  0  0  0  0  0
    2.1747   -1.1520    9.5002 N   0  0  0  0  0  0  0  0  0  0  0  0
   -6.0812    2.6290    3.9148 C   0  0  0  0  0  0  0  0  0  0  0  0
   -9.3349    2.9411    9.5630 C   0  0  0  0  0  0  0  0  0  0  0  0
  1  2  1  0
  2  3  2  0
  3  4  1  0
  4  5  1  0
  5  6  1  0
  6  7  1  0
  4  8  1  0
  4  9  1  0
  3 10  1  0
 10 11  2  3
 11 12  1  0
 12 13  2  3
 13 14  1  0
 14 15  2  3
 15 16  1  0
 16 17  2  3
 17 18  1  0
 18 19  1  0
 19 20  1  0
 20 21  1  0
 21 22  1  0
 22 23  1  0
 23 24  1  0
 24 25  1  0
 25 26  2  0
 25 27  1  0
 24 28  1  0
 16 29  1  0
 12 30  1  0
  7  2  1  0
M  END
$$$$
