
     RDKit          3D

 30 30  0  0  0  0  0  0  0  0999 V2000
   -8.6421    2.3816    5.9501 C   0  0  0  0  0  0  0  0  0  0  0  0
   -9.6658    2.2637    7.0061 C   0  0  0  0  0  0  0  0  0  0  0  0
   -9.2671    2.0041    8.2714 C   0  0  0  0  0  0  0  0  0  0  0  0
  -10.3747    1.9123    9.2298 C   0  0  0  0  0  0  0  0  0  0  0  0
  -11.2593    3.1489    8.9822 C   0  0  0  0  0  0  0  0  0  0  0  0
  -11.9638    3.0178    7.6525 C   0  0  0  0  0  0  0  0  0  0  0  0
  -11.0798    2.4185    6.6105 C   0  0  0  0  0  0  0  0  0  0  0  0
  -10.0725    1.8971   10.6795 C   0  0  0  0  0  0  0  0  0  0  0  0
  -11.1602    0.6511    8.9008 C   0  0  0  0  0  0  0  0  0  0  0  0
   -7.8666    1.8509    8.4871 C   0  0  0  0  0  0  0  0  0  0  0  0
   -7.0790    0.7967    8.2313 C   0  0  0  0  0  0  0  0  0  0  0  0
   -5.6987    0.9204    8.6233 C   0  0  0  0  0  0  0  0  0  0  0  0
   -4.7667    1.4550    7.8474 C   0  0  0  0  0  0  0  0  0  0  0  0
   -3.5741    0.7543    7.5218 C   0  0  0  0  0  0  0  0  0  0  0  0
   -2.7245    0.9879    6.5695 C   0  0  0  0  0  0  0  0  0  0  0  0
   -1.5984    0.2728    6.1189 C   0  0  0  0  0  0  0  0  0  0  0  0
   -1.6412   -0.5063    5.0371 C   0  0  0  0  0  0  0  0  0  0  0  0
   -0.6617   -1.5198    4.6882 C   0  0  0  0  0  0  0  0  0  0  0  0
   -1.1553   -2.3106    3.5608 N   0  0  0  0  0  0  0  0  0  0  0  0
   -1.2545   -1.6008    2.3384 C   0  0  0  0  0  0  0  0  0  0  0  0
   -0.1120   -1.7296    1.3926 C   0  0  0  0  0  0  0  0  0  0  0  0
   -0.4059   -1.4322   -0.0336 C   0  0  0  0  0  0  0  0  0  0  0  0
    0.6817   -1.8293   -0.9796 C   0  0  0  0  0  0  0  0  0  0  0  0
    1.7254   -0.7135   -1.0750 C   0  0  0  0  0  0  0  0  0  0  0  0
    2.8546   -1.2922   -1.8397 C   0  0  0  0  0  0  0  0  0  0  0  0
    2.9157   -1.1141   -3.0712 O   0  0  0  0  0  0  0  0  0  0  0  0
    3.8455   -2.0374   -1.1610 O   0  0  0  0  0  0  0  0  0  0  0  0
    1.1910    0.4015   -1.8220 N   0  0  0  0  0  0  0  0  0  0  0  0
   -0.2533    0.2986    6.8032 C   0  0  0  0  0  0  0  0  0  0  0  0
   -5.2311    0.4340    9.9829 C   0  0  0  0  0  0  0  0  0  0  0  0
  1  2  1  0
  2  3  2  0
  3  4  1  0
  4  5  1  0
  5  6  1  0
  6  7  1  0
  4  8  1  0
  4  9  1  0
  3 10  1  0
 10 11  2  3
 11 12  1  0
 12 13  2  3
 13 14  1  0
 14 15  2  3
 15 16  1  0
 16 17  2  3
 17 18  1  0
 18 19  1  0
 19 20  1  0
 20 21  1  0
 21 22  1  0
 22 23  1  0
 23 24  1  0
 24 25  1  0
 25 26  2  0
 25 27  1  0
 24 28  1  0
 16 29  1  0
 12 30  1  0
  7  2  1  0
M  END
$$$$
