
     RDKit          3D

 30 30  0  0  0  0  0  0  0  0999 V2000
   -2.6161    2.8115   11.3778 C   0  0  0  0  0  0  0  0  0  0  0  0
   -3.5737    1.8628   11.9776 C   0  0  0  0  0  0  0  0  0  0  0  0
   -4.4043    1.1753   11.1622 C   0  0  0  0  0  0  0  0  0  0  0  0
   -5.3065    0.2635   11.8752 C   0  0  0  0  0  0  0  0  0  0  0  0
   -4.4246   -0.5310   12.8572 C   0  0  0  0  0  0  0  0  0  0  0  0
   -3.9376    0.3785   13.9604 C   0  0  0  0  0  0  0  0  0  0  0  0
   -3.5810    1.7338   13.4484 C   0  0  0  0  0  0  0  0  0  0  0  0
   -6.0777   -0.7366   11.1016 C   0  0  0  0  0  0  0  0  0  0  0  0
   -6.2953    1.1170   12.6560 C   0  0  0  0  0  0  0  0  0  0  0  0
   -4.2956    1.4341    9.7648 C   0  0  0  0  0  0  0  0  0  0  0  0
   -5.1670    1.1662    8.7820 C   0  0  0  0  0  0  0  0  0  0  0  0
   -5.1954    2.0959    7.6824 C   0  0  0  0  0  0  0  0  0  0  0  0
   -4.3249    2.0689    6.6834 C   0  0  0  0  0  0  0  0  0  0  0  0
   -4.7458    1.9948    5.3282 C   0  0  0  0  0  0  0  0  0  0  0  0
   -4.1473    1.4454    4.3167 C   0  0  0  0  0  0  0  0  0  0  0  0
   -4.5204    1.3073    2.9660 C   0  0  0  0  0  0  0  0  0  0  0  0
   -3.6206    1.1230    1.9987 C   0  0  0  0  0  0  0  0  0  0  0  0
   -3.6927    0.1092    0.9617 C   0  0  0  0  0  0  0  0  0  0  0  0
   -2.3556   -0.4268    0.7069 N   0  0  0  0  0  0  0  0  0  0  0  0
   -2.0795   -0.7062   -0.6546 C   0  0  0  0  0  0  0  0  0  0  0  0
   -1.6709    0.4441   -1.5067 C   0  0  0  0  0  0  0  0  0  0  0  0
   -0.3184    0.3591   -2.1169 C   0  0  0  0  0  0  0  0  0  0  0  0
   -0.2912   -0.3001   -3.4586 C   0  0  0  0  0  0  0  0  0  0  0  0
    1.1564   -0.4983   -3.9150 C   0  0  0  0  0  0  0  0  0  0  0  0
    1.3034   -1.9547   -4.1436 C   0  0  0  0  0  0  0  0  0  0  0  0
    1.5863   -2.3705   -5.2833 O   0  0  0  0  0  0  0  0  0  0  0  0
    1.1206   -2.8503   -3.0655 O   0  0  0  0  0  0  0  0  0  0  0  0
    1.3784    0.1858   -5.1679 N   0  0  0  0  0  0  0  0  0  0  0  0
   -5.9463    1.3648    2.4744 C   0  0  0  0  0  0  0  0  0  0  0  0
   -6.2548    3.1805    7.6099 C   0  0  0  0  0  0  0  0  0  0  0  0
  1  2  1  0
  2  3  2  0
  3  4  1  0
  4  5  1  0
  5  6  1  0
  6  7  1  0
  4  8  1  0
  4  9  1  0
  3 10  1  0
 10 11  2  3
 11 12  1  0
 12 13  2  3
 13 14  1  0
 14 15  2  3
 15 16  1  0
 16 17  2  3
 17 18  1  0
 18 19  1  0
 19 20  1  0
 20 21  1  0
 21 22  1  0
 22 23  1  0
 23 24  1  0
 24 25  1  0
 25 26  2  0
 25 27  1  0
 24 28  1  0
 16 29  1  0
 12 30  1  0
  7  2  1  0
M  END
$$$$
