
     RDKit          3D

 30 30  0  0  0  0  0  0  0  0999 V2000
   -7.8510    1.2105   11.3470 C   0  0  0  0  0  0  0  0  0  0  0  0
   -7.9415    2.6441   11.0100 C   0  0  0  0  0  0  0  0  0  0  0  0
   -7.6282    3.0376    9.7553 C   0  0  0  0  0  0  0  0  0  0  0  0
   -7.7589    4.4838    9.5427 C   0  0  0  0  0  0  0  0  0  0  0  0
   -9.1365    4.8774   10.1088 C   0  0  0  0  0  0  0  0  0  0  0  0
   -9.1229    4.7667   11.6152 C   0  0  0  0  0  0  0  0  0  0  0  0
   -8.3544    3.5749   12.0792 C   0  0  0  0  0  0  0  0  0  0  0  0
   -7.7061    5.0159    8.1617 C   0  0  0  0  0  0  0  0  0  0  0  0
   -6.6637    5.1651   10.3504 C   0  0  0  0  0  0  0  0  0  0  0  0
   -7.2171    2.0210    8.8448 C   0  0  0  0  0  0  0  0  0  0  0  0
   -6.1679    2.0029    8.0106 C   0  0  0  0  0  0  0  0  0  0  0  0
   -6.4688    1.8712    6.6084 C   0  0  0  0  0  0  0  0  0  0  0  0
   -5.5390    1.7337    5.6740 C   0  0  0  0  0  0  0  0  0  0  0  0
   -4.1544    1.7300    5.9934 C   0  0  0  0  0  0  0  0  0  0  0  0
   -3.1362    1.9210    5.2123 C   0  0  0  0  0  0  0  0  0  0  0  0
   -2.5843    1.1386    4.1799 C   0  0  0  0  0  0  0  0  0  0  0  0
   -1.2786    0.8749    4.1126 C   0  0  0  0  0  0  0  0  0  0  0  0
   -0.6918   -0.3630    3.6313 C   0  0  0  0  0  0  0  0  0  0  0  0
   -1.1408   -1.4758    4.4681 N   0  0  0  0  0  0  0  0  0  0  0  0
   -0.1885   -2.5115    4.6367 C   0  0  0  0  0  0  0  0  0  0  0  0
    1.1089   -2.1354    5.2627 C   0  0  0  0  0  0  0  0  0  0  0  0
    1.0689   -1.8235    6.7152 C   0  0  0  0  0  0  0  0  0  0  0  0
    1.4487   -2.9682    7.5989 C   0  0  0  0  0  0  0  0  0  0  0  0
    2.0871   -2.4448    8.8880 C   0  0  0  0  0  0  0  0  0  0  0  0
    1.3979   -3.1576    9.9887 C   0  0  0  0  0  0  0  0  0  0  0  0
    1.7516   -4.3145   10.2856 O   0  0  0  0  0  0  0  0  0  0  0  0
    0.3496   -2.5145   10.6855 O   0  0  0  0  0  0  0  0  0  0  0  0
    3.4884   -2.7942    8.9237 N   0  0  0  0  0  0  0  0  0  0  0  0
   -3.3902    0.5374    3.0541 C   0  0  0  0  0  0  0  0  0  0  0  0
   -7.9053    1.8807    6.1183 C   0  0  0  0  0  0  0  0  0  0  0  0
  1  2  1  0
  2  3  2  0
  3  4  1  0
  4  5  1  0
  5  6  1  0
  6  7  1  0
  4  8  1  0
  4  9  1  0
  3 10  1  0
 10 11  2  3
 11 12  1  0
 12 13  2  3
 13 14  1  0
 14 15  2  3
 15 16  1  0
 16 17  2  3
 17 18  1  0
 18 19  1  0
 19 20  1  0
 20 21  1  0
 21 22  1  0
 22 23  1  0
 23 24  1  0
 24 25  1  0
 25 26  2  0
 25 27  1  0
 24 28  1  0
 16 29  1  0
 12 30  1  0
  7  2  1  0
M  END
$$$$
