
     RDKit          3D

 30 30  0  0  0  0  0  0  0  0999 V2000
   -5.7994    1.8761   12.2972 C   0  0  0  0  0  0  0  0  0  0  0  0
   -4.9776    0.6746   12.0566 C   0  0  0  0  0  0  0  0  0  0  0  0
   -4.4924    0.4576   10.8137 C   0  0  0  0  0  0  0  0  0  0  0  0
   -3.6898   -0.7659   10.7011 C   0  0  0  0  0  0  0  0  0  0  0  0
   -2.6962   -0.7366   11.8780 C   0  0  0  0  0  0  0  0  0  0  0  0
   -3.4351   -0.9469   13.1786 C   0  0  0  0  0  0  0  0  0  0  0  0
   -4.7479   -0.2380   13.1943 C   0  0  0  0  0  0  0  0  0  0  0  0
   -2.8844   -0.9883    9.4784 C   0  0  0  0  0  0  0  0  0  0  0  0
   -4.6344   -1.9483   10.8624 C   0  0  0  0  0  0  0  0  0  0  0  0
   -4.8282    1.4166    9.8142 C   0  0  0  0  0  0  0  0  0  0  0  0
   -4.4555    2.7001    9.7105 C   0  0  0  0  0  0  0  0  0  0  0  0
   -4.9097    3.4045    8.5393 C   0  0  0  0  0  0  0  0  0  0  0  0
   -5.6136    2.8326    7.5730 C   0  0  0  0  0  0  0  0  0  0  0  0
   -6.2625    3.5994    6.5678 C   0  0  0  0  0  0  0  0  0  0  0  0
   -5.8018    4.0014    5.4235 C   0  0  0  0  0  0  0  0  0  0  0  0
   -5.8797    3.4461    4.1319 C   0  0  0  0  0  0  0  0  0  0  0  0
   -4.7947    3.2375    3.3847 C   0  0  0  0  0  0  0  0  0  0  0  0
   -4.2848    1.9389    2.9820 C   0  0  0  0  0  0  0  0  0  0  0  0
   -3.1747    2.1173    2.0461 N   0  0  0  0  0  0  0  0  0  0  0  0
   -2.5728    0.9126    1.6052 C   0  0  0  0  0  0  0  0  0  0  0  0
   -1.3029    0.5133    2.2719 C   0  0  0  0  0  0  0  0  0  0  0  0
   -1.3825   -0.6568    3.1847 C   0  0  0  0  0  0  0  0  0  0  0  0
   -0.9496   -1.9475    2.5665 C   0  0  0  0  0  0  0  0  0  0  0  0
    0.3876   -2.3917    3.1647 C   0  0  0  0  0  0  0  0  0  0  0  0
    1.3777   -2.2462    2.0724 C   0  0  0  0  0  0  0  0  0  0  0  0
    2.1098   -3.2098    1.7767 O   0  0  0  0  0  0  0  0  0  0  0  0
    1.4768   -1.0168    1.3820 O   0  0  0  0  0  0  0  0  0  0  0  0
    0.7646   -1.5087    4.2442 N   0  0  0  0  0  0  0  0  0  0  0  0
   -7.1719    3.0475    3.4615 C   0  0  0  0  0  0  0  0  0  0  0  0
   -4.5986    4.8781    8.3502 C   0  0  0  0  0  0  0  0  0  0  0  0
  1  2  1  0
  2  3  2  0
  3  4  1  0
  4  5  1  0
  5  6  1  0
  6  7  1  0
  4  8  1  0
  4  9  1  0
  3 10  1  0
 10 11  2  3
 11 12  1  0
 12 13  2  3
 13 14  1  0
 14 15  2  3
 15 16  1  0
 16 17  2  3
 17 18  1  0
 18 19  1  0
 19 20  1  0
 20 21  1  0
 21 22  1  0
 22 23  1  0
 23 24  1  0
 24 25  1  0
 25 26  2  0
 25 27  1  0
 24 28  1  0
 16 29  1  0
 12 30  1  0
  7  2  1  0
M  END
$$$$
