
     RDKit          3D

 30 30  0  0  0  0  0  0  0  0999 V2000
  -12.4399   -0.3587    8.0760 C   0  0  0  0  0  0  0  0  0  0  0  0
  -12.0873   -0.8806    9.4102 C   0  0  0  0  0  0  0  0  0  0  0  0
  -11.1649   -0.2185   10.1439 C   0  0  0  0  0  0  0  0  0  0  0  0
  -10.9017   -0.8325   11.4505 C   0  0  0  0  0  0  0  0  0  0  0  0
  -12.2802   -1.1031   12.0825 C   0  0  0  0  0  0  0  0  0  0  0  0
  -12.9794   -2.2126   11.3331 C   0  0  0  0  0  0  0  0  0  0  0  0
  -12.7552   -2.1178    9.8610 C   0  0  0  0  0  0  0  0  0  0  0  0
  -10.1207   -0.0767   12.4567 C   0  0  0  0  0  0  0  0  0  0  0  0
  -10.1893   -2.1537   11.1993 C   0  0  0  0  0  0  0  0  0  0  0  0
  -10.5878    0.9446    9.5560 C   0  0  0  0  0  0  0  0  0  0  0  0
   -9.3309    1.1488    9.1370 C   0  0  0  0  0  0  0  0  0  0  0  0
   -9.0564    2.4311    8.5414 C   0  0  0  0  0  0  0  0  0  0  0  0
   -7.9594    2.6903    7.8444 C   0  0  0  0  0  0  0  0  0  0  0  0
   -7.7756    2.1886    6.5276 C   0  0  0  0  0  0  0  0  0  0  0  0
   -7.3597    2.8110    5.4679 C   0  0  0  0  0  0  0  0  0  0  0  0
   -6.1264    3.4148    5.1563 C   0  0  0  0  0  0  0  0  0  0  0  0
   -5.2510    2.8477    4.3250 C   0  0  0  0  0  0  0  0  0  0  0  0
   -3.9552    2.3117    4.7018 C   0  0  0  0  0  0  0  0  0  0  0  0
   -3.3592    1.6213    3.5581 N   0  0  0  0  0  0  0  0  0  0  0  0
   -1.9439    1.6721    3.5078 C   0  0  0  0  0  0  0  0  0  0  0  0
   -1.2129    1.2491    4.7338 C   0  0  0  0  0  0  0  0  0  0  0  0
   -1.0457   -0.2153    4.9240 C   0  0  0  0  0  0  0  0  0  0  0  0
   -0.0739   -0.5873    5.9976 C   0  0  0  0  0  0  0  0  0  0  0  0
   -0.4896   -1.9113    6.6438 C   0  0  0  0  0  0  0  0  0  0  0  0
    0.6766   -2.3416    7.4498 C   0  0  0  0  0  0  0  0  0  0  0  0
    0.7759   -1.9653    8.6332 O   0  0  0  0  0  0  0  0  0  0  0  0
    1.6588   -3.1726    6.8644 O   0  0  0  0  0  0  0  0  0  0  0  0
   -1.6071   -1.6982    7.5341 N   0  0  0  0  0  0  0  0  0  0  0  0
   -5.6648    4.7338    5.7267 C   0  0  0  0  0  0  0  0  0  0  0  0
  -10.0386    3.5796    8.6839 C   0  0  0  0  0  0  0  0  0  0  0  0
  1  2  1  0
  2  3  2  0
  3  4  1  0
  4  5  1  0
  5  6  1  0
  6  7  1  0
  4  8  1  0
  4  9  1  0
  3 10  1  0
 10 11  2  3
 11 12  1  0
 12 13  2  3
 13 14  1  0
 14 15  2  3
 15 16  1  0
 16 17  2  3
 17 18  1  0
 18 19  1  0
 19 20  1  0
 20 21  1  0
 21 22  1  0
 22 23  1  0
 23 24  1  0
 24 25  1  0
 25 26  2  0
 25 27  1  0
 24 28  1  0
 16 29  1  0
 12 30  1  0
  7  2  1  0
M  END
$$$$
