
     RDKit          3D

 30 30  0  0  0  0  0  0  0  0999 V2000
   -3.5036    2.4546    9.8155 C   0  0  0  0  0  0  0  0  0  0  0  0
   -4.2305    2.5687   11.0938 C   0  0  0  0  0  0  0  0  0  0  0  0
   -5.5159    2.6507   11.0792 C   0  0  0  0  0  0  0  0  0  0  0  0
   -6.0763    2.7800   12.5213 C   0  0  0  0  0  0  0  0  0  0  0  0
   -5.4512    1.6478   13.2874 C   0  0  0  0  0  0  0  0  0  0  0  0
   -3.9750    1.8653   13.4618 C   0  0  0  0  0  0  0  0  0  0  0  0
   -3.3573    2.5692   12.3134 C   0  0  0  0  0  0  0  0  0  0  0  0
   -5.5879    4.0831   13.0905 C   0  0  0  0  0  0  0  0  0  0  0  0
   -7.5697    2.7205   12.5508 C   0  0  0  0  0  0  0  0  0  0  0  0
   -6.4382    2.5157   10.0053 C   0  0  0  0  0  0  0  0  0  0  0  0
   -6.6299    2.5053    8.7679 C   0  0  0  0  0  0  0  0  0  0  0  0
   -7.3452    2.9517    7.6181 C   0  0  0  0  0  0  0  0  0  0  0  0
   -7.3953    2.0417    6.5983 C   0  0  0  0  0  0  0  0  0  0  0  0
   -6.3019    1.5613    5.8220 C   0  0  0  0  0  0  0  0  0  0  0  0
   -6.5469    0.6711    4.8468 C   0  0  0  0  0  0  0  0  0  0  0  0
   -5.4092    0.1639    4.0603 C   0  0  0  0  0  0  0  0  0  0  0  0
   -4.7980    0.9903    3.2644 C   0  0  0  0  0  0  0  0  0  0  0  0
   -4.6547    0.8464    1.8172 C   0  0  0  0  0  0  0  0  0  0  0  0
   -3.8397    1.8962    1.2297 N   0  0  0  0  0  0  0  0  0  0  0  0
   -3.6858    1.8165   -0.1853 C   0  0  0  0  0  0  0  0  0  0  0  0
   -2.3394    1.2354   -0.5544 C   0  0  0  0  0  0  0  0  0  0  0  0
   -2.3939    0.5268   -1.8939 C   0  0  0  0  0  0  0  0  0  0  0  0
   -1.0361   -0.0522   -2.2556 C   0  0  0  0  0  0  0  0  0  0  0  0
   -0.9495   -0.3413   -3.7366 C   0  0  0  0  0  0  0  0  0  0  0  0
    0.3161   -1.0752   -4.0447 C   0  0  0  0  0  0  0  0  0  0  0  0
    0.1913   -2.2795   -4.4009 O   0  0  0  0  0  0  0  0  0  0  0  0
    1.5723   -0.5387   -3.9676 O   0  0  0  0  0  0  0  0  0  0  0  0
   -1.0724    0.8569   -4.5233 N   0  0  0  0  0  0  0  0  0  0  0  0
   -5.0480   -1.2546    4.2415 C   0  0  0  0  0  0  0  0  0  0  0  0
   -7.9605    4.2334    7.2727 C   0  0  0  0  0  0  0  0  0  0  0  0
  1  2  1  0
  2  3  2  0
  3  4  1  0
  4  5  1  0
  5  6  1  0
  6  7  1  0
  4  8  1  0
  4  9  1  0
  3 10  1  0
 10 11  2  3
 11 12  1  0
 12 13  2  3
 13 14  1  0
 14 15  2  3
 15 16  1  0
 16 17  2  3
 17 18  1  0
 18 19  1  0
 19 20  1  0
 20 21  1  0
 21 22  1  0
 22 23  1  0
 23 24  1  0
 24 25  1  0
 25 26  2  0
 25 27  1  0
 24 28  1  0
 16 29  1  0
 12 30  1  0
  7  2  1  0
M  END
$$$$
