
     RDKit          3D

 30 30  0  0  0  0  0  0  0  0999 V2000
   -9.8260    2.6475    7.6186 C   0  0  0  0  0  0  0  0  0  0  0  0
   -8.8212    2.6654    8.6981 C   0  0  0  0  0  0  0  0  0  0  0  0
   -7.5881    2.8934    8.4036 C   0  0  0  0  0  0  0  0  0  0  0  0
   -6.7004    2.8510    9.6766 C   0  0  0  0  0  0  0  0  0  0  0  0
   -7.3735    3.7734   10.6542 C   0  0  0  0  0  0  0  0  0  0  0  0
   -8.6836    3.2035   11.1186 C   0  0  0  0  0  0  0  0  0  0  0  0
   -9.3714    2.4133   10.0706 C   0  0  0  0  0  0  0  0  0  0  0  0
   -6.7407    1.4497   10.2201 C   0  0  0  0  0  0  0  0  0  0  0  0
   -5.2922    3.2645    9.3932 C   0  0  0  0  0  0  0  0  0  0  0  0
   -6.9886    3.2826    7.1742 C   0  0  0  0  0  0  0  0  0  0  0  0
   -6.5190    2.9341    6.0670 C   0  0  0  0  0  0  0  0  0  0  0  0
   -5.7493    3.2155    4.9002 C   0  0  0  0  0  0  0  0  0  0  0  0
   -6.1152    2.4940    3.7974 C   0  0  0  0  0  0  0  0  0  0  0  0
   -5.3254    1.5384    3.0959 C   0  0  0  0  0  0  0  0  0  0  0  0
   -4.5267    1.9665    2.1049 C   0  0  0  0  0  0  0  0  0  0  0  0
   -3.6450    0.9883    1.4447 C   0  0  0  0  0  0  0  0  0  0  0  0
   -2.4926    0.7359    1.9911 C   0  0  0  0  0  0  0  0  0  0  0  0
   -1.8011   -0.5515    1.9885 C   0  0  0  0  0  0  0  0  0  0  0  0
   -2.2546   -1.4310    3.0526 N   0  0  0  0  0  0  0  0  0  0  0  0
   -2.3143   -0.8305    4.3441 C   0  0  0  0  0  0  0  0  0  0  0  0
   -0.9828   -0.9320    5.0536 C   0  0  0  0  0  0  0  0  0  0  0  0
   -0.9620   -2.0991    6.0215 C   0  0  0  0  0  0  0  0  0  0  0  0
    0.0820   -1.8852    7.1050 C   0  0  0  0  0  0  0  0  0  0  0  0
   -0.3672   -2.4910    8.4148 C   0  0  0  0  0  0  0  0  0  0  0  0
    0.5618   -2.0869    9.5144 C   0  0  0  0  0  0  0  0  0  0  0  0
    1.4049   -1.1910    9.2327 O   0  0  0  0  0  0  0  0  0  0  0  0
    0.5577   -2.6129   10.7773 O   0  0  0  0  0  0  0  0  0  0  0  0
   -0.4939   -3.9214    8.3268 N   0  0  0  0  0  0  0  0  0  0  0  0
   -4.1449    0.3641    0.2053 C   0  0  0  0  0  0  0  0  0  0  0  0
   -4.5767    4.0595    4.6693 C   0  0  0  0  0  0  0  0  0  0  0  0
  1  2  1  0
  2  3  2  0
  3  4  1  0
  4  5  1  0
  5  6  1  0
  6  7  1  0
  4  8  1  0
  4  9  1  0
  3 10  1  0
 10 11  2  3
 11 12  1  0
 12 13  2  3
 13 14  1  0
 14 15  2  3
 15 16  1  0
 16 17  2  3
 17 18  1  0
 18 19  1  0
 19 20  1  0
 20 21  1  0
 21 22  1  0
 22 23  1  0
 23 24  1  0
 24 25  1  0
 25 26  2  0
 25 27  1  0
 24 28  1  0
 16 29  1  0
 12 30  1  0
  7  2  1  0
M  END
$$$$
