
     RDKit          3D

 30 30  0  0  0  0  0  0  0  0999 V2000
   -7.8859   -2.2151   13.1660 C   0  0  0  0  0  0  0  0  0  0  0  0
   -6.8255   -1.4286   13.8234 C   0  0  0  0  0  0  0  0  0  0  0  0
   -6.0911   -0.6465   13.1105 C   0  0  0  0  0  0  0  0  0  0  0  0
   -5.0323    0.0701   13.9913 C   0  0  0  0  0  0  0  0  0  0  0  0
   -5.8113    0.6752   15.1256 C   0  0  0  0  0  0  0  0  0  0  0  0
   -6.3606   -0.3903   16.0310 C   0  0  0  0  0  0  0  0  0  0  0  0
   -6.7231   -1.6309   15.3062 C   0  0  0  0  0  0  0  0  0  0  0  0
   -4.1042   -0.9776   14.5405 C   0  0  0  0  0  0  0  0  0  0  0  0
   -4.2673    1.0996   13.2237 C   0  0  0  0  0  0  0  0  0  0  0  0
   -6.1952   -0.2748   11.7418 C   0  0  0  0  0  0  0  0  0  0  0  0
   -6.1815    0.6415   10.8885 C   0  0  0  0  0  0  0  0  0  0  0  0
   -5.6482    1.2263    9.7025 C   0  0  0  0  0  0  0  0  0  0  0  0
   -6.1796    0.7318    8.5434 C   0  0  0  0  0  0  0  0  0  0  0  0
   -7.1261    1.3705    7.6918 C   0  0  0  0  0  0  0  0  0  0  0  0
   -7.0614    1.1401    6.3704 C   0  0  0  0  0  0  0  0  0  0  0  0
   -7.2280    2.2801    5.4523 C   0  0  0  0  0  0  0  0  0  0  0  0
   -6.3758    2.4125    4.4795 C   0  0  0  0  0  0  0  0  0  0  0  0
   -6.4538    3.3855    3.3919 C   0  0  0  0  0  0  0  0  0  0  0  0
   -5.6079    3.0317    2.2645 N   0  0  0  0  0  0  0  0  0  0  0  0
   -4.2569    3.4756    2.3643 C   0  0  0  0  0  0  0  0  0  0  0  0
   -3.3118    2.3080    2.5380 C   0  0  0  0  0  0  0  0  0  0  0  0
   -2.9898    1.6574    1.2067 C   0  0  0  0  0  0  0  0  0  0  0  0
   -2.8194    0.1556    1.3654 C   0  0  0  0  0  0  0  0  0  0  0  0
   -2.3826   -0.4787    0.0648 C   0  0  0  0  0  0  0  0  0  0  0  0
   -1.9285   -1.8830    0.3039 C   0  0  0  0  0  0  0  0  0  0  0  0
   -1.3501   -2.4552   -0.6609 O   0  0  0  0  0  0  0  0  0  0  0  0
   -2.0953   -2.5726    1.4737 O   0  0  0  0  0  0  0  0  0  0  0  0
   -1.3700    0.3005   -0.5964 N   0  0  0  0  0  0  0  0  0  0  0  0
   -8.3610    3.1887    5.7099 C   0  0  0  0  0  0  0  0  0  0  0  0
   -4.5711    2.1897    9.4734 C   0  0  0  0  0  0  0  0  0  0  0  0
  1  2  1  0
  2  3  2  0
  3  4  1  0
  4  5  1  0
  5  6  1  0
  6  7  1  0
  4  8  1  0
  4  9  1  0
  3 10  1  0
 10 11  2  3
 11 12  1  0
 12 13  2  3
 13 14  1  0
 14 15  2  3
 15 16  1  0
 16 17  2  3
 17 18  1  0
 18 19  1  0
 19 20  1  0
 20 21  1  0
 21 22  1  0
 22 23  1  0
 23 24  1  0
 24 25  1  0
 25 26  2  0
 25 27  1  0
 24 28  1  0
 16 29  1  0
 12 30  1  0
  7  2  1  0
M  END
$$$$
