
     RDKit          3D

 30 30  0  0  0  0  0  0  0  0999 V2000
   -4.1877    3.6771   10.5600 C   0  0  0  0  0  0  0  0  0  0  0  0
   -4.4494    2.7842   11.7043 C   0  0  0  0  0  0  0  0  0  0  0  0
   -5.3488    1.8689   11.5928 C   0  0  0  0  0  0  0  0  0  0  0  0
   -5.4755    1.0572   12.9103 C   0  0  0  0  0  0  0  0  0  0  0  0
   -4.0732    0.6303   13.2435 C   0  0  0  0  0  0  0  0  0  0  0  0
   -3.2296    1.8098   13.6357 C   0  0  0  0  0  0  0  0  0  0  0  0
   -3.6008    3.0488   12.9126 C   0  0  0  0  0  0  0  0  0  0  0  0
   -5.9693    1.9903   13.9808 C   0  0  0  0  0  0  0  0  0  0  0  0
   -6.3978   -0.1101   12.7641 C   0  0  0  0  0  0  0  0  0  0  0  0
   -6.0985    1.4431   10.4619 C   0  0  0  0  0  0  0  0  0  0  0  0
   -6.7036    1.7580    9.4119 C   0  0  0  0  0  0  0  0  0  0  0  0
   -7.5350    1.4125    8.3062 C   0  0  0  0  0  0  0  0  0  0  0  0
   -7.1091    1.9093    7.1053 C   0  0  0  0  0  0  0  0  0  0  0  0
   -5.7693    2.2121    6.7279 C   0  0  0  0  0  0  0  0  0  0  0  0
   -5.5319    2.6243    5.4721 C   0  0  0  0  0  0  0  0  0  0  0  0
   -4.1811    3.1079    5.1379 C   0  0  0  0  0  0  0  0  0  0  0  0
   -3.8812    3.2688    3.8832 C   0  0  0  0  0  0  0  0  0  0  0  0
   -4.8154    3.6001    2.8094 C   0  0  0  0  0  0  0  0  0  0  0  0
   -4.5427    2.8655    1.5857 N   0  0  0  0  0  0  0  0  0  0  0  0
   -5.3128    1.6783    1.4133 C   0  0  0  0  0  0  0  0  0  0  0  0
   -4.9975    1.0120    0.0930 C   0  0  0  0  0  0  0  0  0  0  0  0
   -3.5010    0.9002   -0.1241 C   0  0  0  0  0  0  0  0  0  0  0  0
   -3.0679   -0.5558   -0.1700 C   0  0  0  0  0  0  0  0  0  0  0  0
   -2.7097   -0.9685   -1.5792 C   0  0  0  0  0  0  0  0  0  0  0  0
   -2.2694   -2.3971   -1.6011 C   0  0  0  0  0  0  0  0  0  0  0  0
   -2.3828   -3.0000   -2.7040 O   0  0  0  0  0  0  0  0  0  0  0  0
   -1.7631   -3.0781   -0.5279 O   0  0  0  0  0  0  0  0  0  0  0  0
   -1.7184   -0.0994   -2.1551 N   0  0  0  0  0  0  0  0  0  0  0  0
   -3.2673    3.3768    6.2641 C   0  0  0  0  0  0  0  0  0  0  0  0
   -8.8130    0.7064    8.2132 C   0  0  0  0  0  0  0  0  0  0  0  0
  1  2  1  0
  2  3  2  0
  3  4  1  0
  4  5  1  0
  5  6  1  0
  6  7  1  0
  4  8  1  0
  4  9  1  0
  3 10  1  0
 10 11  2  3
 11 12  1  0
 12 13  2  3
 13 14  1  0
 14 15  2  3
 15 16  1  0
 16 17  2  3
 17 18  1  0
 18 19  1  0
 19 20  1  0
 20 21  1  0
 21 22  1  0
 22 23  1  0
 23 24  1  0
 24 25  1  0
 25 26  2  0
 25 27  1  0
 24 28  1  0
 16 29  1  0
 12 30  1  0
  7  2  1  0
M  END
$$$$
