
     RDKit          3D

 30 30  0  0  0  0  0  0  0  0999 V2000
   -4.8666    1.3788   14.3572 C   0  0  0  0  0  0  0  0  0  0  0  0
   -5.6752    0.4704   13.5230 C   0  0  0  0  0  0  0  0  0  0  0  0
   -5.7866    0.7092   12.2621 C   0  0  0  0  0  0  0  0  0  0  0  0
   -6.6893   -0.3525   11.5776 C   0  0  0  0  0  0  0  0  0  0  0  0
   -6.1195   -1.6792   11.9958 C   0  0  0  0  0  0  0  0  0  0  0  0
   -6.3390   -1.9219   13.4620 C   0  0  0  0  0  0  0  0  0  0  0  0
   -6.2944   -0.6771   14.2646 C   0  0  0  0  0  0  0  0  0  0  0  0
   -8.0746   -0.2150   12.1459 C   0  0  0  0  0  0  0  0  0  0  0  0
   -6.7130   -0.1952   10.0913 C   0  0  0  0  0  0  0  0  0  0  0  0
   -5.1338    1.6708   11.4426 C   0  0  0  0  0  0  0  0  0  0  0  0
   -4.5454    1.9212   10.3661 C   0  0  0  0  0  0  0  0  0  0  0  0
   -3.7832    2.8011    9.5427 C   0  0  0  0  0  0  0  0  0  0  0  0
   -4.4842    3.3468    8.5028 C   0  0  0  0  0  0  0  0  0  0  0  0
   -5.0159    2.6620    7.3727 C   0  0  0  0  0  0  0  0  0  0  0  0
   -4.6573    3.0709    6.1449 C   0  0  0  0  0  0  0  0  0  0  0  0
   -5.6750    3.0637    5.0798 C   0  0  0  0  0  0  0  0  0  0  0  0
   -5.2904    2.7970    3.8670 C   0  0  0  0  0  0  0  0  0  0  0  0
   -5.0919    1.4652    3.2990 C   0  0  0  0  0  0  0  0  0  0  0  0
   -5.3629    1.4208    1.8720 N   0  0  0  0  0  0  0  0  0  0  0  0
   -4.6358    2.3674    1.0926 C   0  0  0  0  0  0  0  0  0  0  0  0
   -3.3491    1.7688    0.5704 C   0  0  0  0  0  0  0  0  0  0  0  0
   -3.5835    0.9895   -0.7090 C   0  0  0  0  0  0  0  0  0  0  0  0
   -2.2715    0.7210   -1.4274 C   0  0  0  0  0  0  0  0  0  0  0  0
   -2.2305   -0.6902   -1.9673 C   0  0  0  0  0  0  0  0  0  0  0  0
   -0.9617   -1.3634   -1.5524 C   0  0  0  0  0  0  0  0  0  0  0  0
   -0.9098   -2.6126   -1.7243 O   0  0  0  0  0  0  0  0  0  0  0  0
    0.1223   -0.7282   -1.0108 O   0  0  0  0  0  0  0  0  0  0  0  0
   -2.4049   -0.7216   -3.3950 N   0  0  0  0  0  0  0  0  0  0  0  0
   -7.0642    3.3598    5.4776 C   0  0  0  0  0  0  0  0  0  0  0  0
   -2.3664    3.1662    9.5326 C   0  0  0  0  0  0  0  0  0  0  0  0
  1  2  1  0
  2  3  2  0
  3  4  1  0
  4  5  1  0
  5  6  1  0
  6  7  1  0
  4  8  1  0
  4  9  1  0
  3 10  1  0
 10 11  2  3
 11 12  1  0
 12 13  2  3
 13 14  1  0
 14 15  2  3
 15 16  1  0
 16 17  2  3
 17 18  1  0
 18 19  1  0
 19 20  1  0
 20 21  1  0
 21 22  1  0
 22 23  1  0
 23 24  1  0
 24 25  1  0
 25 26  2  0
 25 27  1  0
 24 28  1  0
 16 29  1  0
 12 30  1  0
  7  2  1  0
M  END
$$$$
