
     RDKit          3D

 30 30  0  0  0  0  0  0  0  0999 V2000
   -9.7859    3.8010   11.0072 C   0  0  0  0  0  0  0  0  0  0  0  0
  -10.8910    3.5364   10.0671 C   0  0  0  0  0  0  0  0  0  0  0  0
  -10.6318    3.4222    8.8105 C   0  0  0  0  0  0  0  0  0  0  0  0
  -11.9312    3.1639    8.0009 C   0  0  0  0  0  0  0  0  0  0  0  0
  -12.5988    2.0071    8.6905 C   0  0  0  0  0  0  0  0  0  0  0  0
  -13.1027    2.4069   10.0481 C   0  0  0  0  0  0  0  0  0  0  0  0
  -12.2429    3.4186   10.7062 C   0  0  0  0  0  0  0  0  0  0  0  0
  -12.8050    4.3805    8.1313 C   0  0  0  0  0  0  0  0  0  0  0  0
  -11.6478    2.8721    6.5625 C   0  0  0  0  0  0  0  0  0  0  0  0
   -9.3871    3.3724    8.1247 C   0  0  0  0  0  0  0  0  0  0  0  0
   -8.1537    3.5871    8.1502 C   0  0  0  0  0  0  0  0  0  0  0  0
   -6.9580    4.0373    7.5172 C   0  0  0  0  0  0  0  0  0  0  0  0
   -5.8698    3.2388    7.7378 C   0  0  0  0  0  0  0  0  0  0  0  0
   -4.9380    2.7702    6.7676 C   0  0  0  0  0  0  0  0  0  0  0  0
   -4.2049    1.6817    7.0524 C   0  0  0  0  0  0  0  0  0  0  0  0
   -3.8959    0.7410    5.9616 C   0  0  0  0  0  0  0  0  0  0  0  0
   -2.6490    0.5676    5.6373 C   0  0  0  0  0  0  0  0  0  0  0  0
   -2.1455    0.1975    4.3162 C   0  0  0  0  0  0  0  0  0  0  0  0
   -1.8965   -1.2288    4.1931 N   0  0  0  0  0  0  0  0  0  0  0  0
   -0.6316   -1.6628    4.6871 C   0  0  0  0  0  0  0  0  0  0  0  0
    0.2738   -2.0983    3.5570 C   0  0  0  0  0  0  0  0  0  0  0  0
    0.4991   -0.9724    2.5666 C   0  0  0  0  0  0  0  0  0  0  0  0
    1.2311   -1.4748    1.3332 C   0  0  0  0  0  0  0  0  0  0  0  0
    1.0818   -0.5044    0.1840 C   0  0  0  0  0  0  0  0  0  0  0  0
    0.4541   -1.1876   -0.9885 C   0  0  0  0  0  0  0  0  0  0  0  0
    0.1696   -0.4548   -1.9758 O   0  0  0  0  0  0  0  0  0  0  0  0
    0.1744   -2.5250   -1.0593 O   0  0  0  0  0  0  0  0  0  0  0  0
    2.3366    0.1054   -0.1672 N   0  0  0  0  0  0  0  0  0  0  0  0
   -5.0364    0.0614    5.3189 C   0  0  0  0  0  0  0  0  0  0  0  0
   -6.6385    5.2419    6.7508 C   0  0  0  0  0  0  0  0  0  0  0  0
  1  2  1  0
  2  3  2  0
  3  4  1  0
  4  5  1  0
  5  6  1  0
  6  7  1  0
  4  8  1  0
  4  9  1  0
  3 10  1  0
 10 11  2  3
 11 12  1  0
 12 13  2  3
 13 14  1  0
 14 15  2  3
 15 16  1  0
 16 17  2  3
 17 18  1  0
 18 19  1  0
 19 20  1  0
 20 21  1  0
 21 22  1  0
 22 23  1  0
 23 24  1  0
 24 25  1  0
 25 26  2  0
 25 27  1  0
 24 28  1  0
 16 29  1  0
 12 30  1  0
  7  2  1  0
M  END
$$$$
