
     RDKit          3D

 30 30  0  0  0  0  0  0  0  0999 V2000
   -9.3174    2.6660   10.1745 C   0  0  0  0  0  0  0  0  0  0  0  0
   -9.3352    3.3770    8.8825 C   0  0  0  0  0  0  0  0  0  0  0  0
   -8.2255    3.5707    8.2578 C   0  0  0  0  0  0  0  0  0  0  0  0
   -8.4658    4.3481    6.9355 C   0  0  0  0  0  0  0  0  0  0  0  0
   -9.5505    3.5871    6.2255 C   0  0  0  0  0  0  0  0  0  0  0  0
  -10.8600    3.7121    6.9510 C   0  0  0  0  0  0  0  0  0  0  0  0
  -10.6970    3.8042    8.4210 C   0  0  0  0  0  0  0  0  0  0  0  0
   -8.9810    5.7150    7.2915 C   0  0  0  0  0  0  0  0  0  0  0  0
   -7.2226    4.4530    6.1120 C   0  0  0  0  0  0  0  0  0  0  0  0
   -6.9158    3.0881    8.5297 C   0  0  0  0  0  0  0  0  0  0  0  0
   -6.1879    2.1205    8.8486 C   0  0  0  0  0  0  0  0  0  0  0  0
   -4.9287    1.5983    9.2670 C   0  0  0  0  0  0  0  0  0  0  0  0
   -3.9872    1.5390    8.2768 C   0  0  0  0  0  0  0  0  0  0  0  0
   -3.3560    0.3708    7.7611 C   0  0  0  0  0  0  0  0  0  0  0  0
   -2.4267    0.5115    6.8021 C   0  0  0  0  0  0  0  0  0  0  0  0
   -1.8089   -0.7032    6.2426 C   0  0  0  0  0  0  0  0  0  0  0  0
   -0.5210   -0.7096    6.0658 C   0  0  0  0  0  0  0  0  0  0  0  0
    0.2132    0.0421    5.0502 C   0  0  0  0  0  0  0  0  0  0  0  0
    1.0441   -0.8103    4.2167 N   0  0  0  0  0  0  0  0  0  0  0  0
    0.3364   -1.5672    3.2377 C   0  0  0  0  0  0  0  0  0  0  0  0
    0.7048   -1.1274    1.8387 C   0  0  0  0  0  0  0  0  0  0  0  0
   -0.0752   -1.9022    0.7944 C   0  0  0  0  0  0  0  0  0  0  0  0
   -1.3521   -1.1691    0.4182 C   0  0  0  0  0  0  0  0  0  0  0  0
   -1.6117   -1.2643   -1.0678 C   0  0  0  0  0  0  0  0  0  0  0  0
   -3.0772   -1.1538   -1.3425 C   0  0  0  0  0  0  0  0  0  0  0  0
   -3.6249   -0.0625   -1.0235 O   0  0  0  0  0  0  0  0  0  0  0  0
   -3.8459   -2.1363   -1.9043 O   0  0  0  0  0  0  0  0  0  0  0  0
   -1.0558   -2.4654   -1.6317 N   0  0  0  0  0  0  0  0  0  0  0  0
   -2.7086   -1.8285    5.9266 C   0  0  0  0  0  0  0  0  0  0  0  0
   -4.4683    1.0216   10.5303 C   0  0  0  0  0  0  0  0  0  0  0  0
  1  2  1  0
  2  3  2  0
  3  4  1  0
  4  5  1  0
  5  6  1  0
  6  7  1  0
  4  8  1  0
  4  9  1  0
  3 10  1  0
 10 11  2  3
 11 12  1  0
 12 13  2  3
 13 14  1  0
 14 15  2  3
 15 16  1  0
 16 17  2  3
 17 18  1  0
 18 19  1  0
 19 20  1  0
 20 21  1  0
 21 22  1  0
 22 23  1  0
 23 24  1  0
 24 25  1  0
 25 26  2  0
 25 27  1  0
 24 28  1  0
 16 29  1  0
 12 30  1  0
  7  2  1  0
M  END
$$$$
