
     RDKit          3D

 30 30  0  0  0  0  0  0  0  0999 V2000
  -13.7865    4.6034    8.9742 C   0  0  0  0  0  0  0  0  0  0  0  0
  -13.9501    3.3036    8.2969 C   0  0  0  0  0  0  0  0  0  0  0  0
  -12.9118    2.5709    8.0863 C   0  0  0  0  0  0  0  0  0  0  0  0
  -13.3018    1.2608    7.3500 C   0  0  0  0  0  0  0  0  0  0  0  0
  -14.4245    0.6755    8.1604 C   0  0  0  0  0  0  0  0  0  0  0  0
  -15.6621    1.5207    8.0559 C   0  0  0  0  0  0  0  0  0  0  0  0
  -15.3627    2.9657    7.9218 C   0  0  0  0  0  0  0  0  0  0  0  0
  -13.8239    1.6341    5.9904 C   0  0  0  0  0  0  0  0  0  0  0  0
  -12.1468    0.3195    7.2293 C   0  0  0  0  0  0  0  0  0  0  0  0
  -11.5674    2.7263    8.5230 C   0  0  0  0  0  0  0  0  0  0  0  0
  -10.4330    3.2111    8.3089 C   0  0  0  0  0  0  0  0  0  0  0  0
   -9.4655    3.7618    7.4179 C   0  0  0  0  0  0  0  0  0  0  0  0
   -8.1956    3.2900    7.6049 C   0  0  0  0  0  0  0  0  0  0  0  0
   -7.1945    3.1013    6.6092 C   0  0  0  0  0  0  0  0  0  0  0  0
   -5.9748    3.6236    6.8157 C   0  0  0  0  0  0  0  0  0  0  0  0
   -5.0391    2.8929    7.6880 C   0  0  0  0  0  0  0  0  0  0  0  0
   -3.9492    2.4219    7.1587 C   0  0  0  0  0  0  0  0  0  0  0  0
   -3.8662    1.3618    6.1562 C   0  0  0  0  0  0  0  0  0  0  0  0
   -3.3680    0.1120    6.7053 N   0  0  0  0  0  0  0  0  0  0  0  0
   -1.9900   -0.1493    6.4505 C   0  0  0  0  0  0  0  0  0  0  0  0
   -1.8240   -1.1514    5.3304 C   0  0  0  0  0  0  0  0  0  0  0  0
   -0.7537   -0.7105    4.3509 C   0  0  0  0  0  0  0  0  0  0  0  0
   -0.1796   -1.9027    3.6035 C   0  0  0  0  0  0  0  0  0  0  0  0
    0.6239   -1.4527    2.4050 C   0  0  0  0  0  0  0  0  0  0  0  0
    0.7587   -2.5740    1.4252 C   0  0  0  0  0  0  0  0  0  0  0  0
    1.9073   -3.0853    1.3156 O   0  0  0  0  0  0  0  0  0  0  0  0
   -0.2587   -3.0707    0.6571 O   0  0  0  0  0  0  0  0  0  0  0  0
    1.9069   -0.9267    2.7884 N   0  0  0  0  0  0  0  0  0  0  0  0
   -5.4149    2.7543    9.1076 C   0  0  0  0  0  0  0  0  0  0  0  0
   -9.5434    4.8082    6.3982 C   0  0  0  0  0  0  0  0  0  0  0  0
  1  2  1  0
  2  3  2  0
  3  4  1  0
  4  5  1  0
  5  6  1  0
  6  7  1  0
  4  8  1  0
  4  9  1  0
  3 10  1  0
 10 11  2  3
 11 12  1  0
 12 13  2  3
 13 14  1  0
 14 15  2  3
 15 16  1  0
 16 17  2  3
 17 18  1  0
 18 19  1  0
 19 20  1  0
 20 21  1  0
 21 22  1  0
 22 23  1  0
 23 24  1  0
 24 25  1  0
 25 26  2  0
 25 27  1  0
 24 28  1  0
 16 29  1  0
 12 30  1  0
  7  2  1  0
M  END
$$$$
