
     RDKit          3D

 30 30  0  0  0  0  0  0  0  0999 V2000
   -4.5769    1.2359   12.7810 C   0  0  0  0  0  0  0  0  0  0  0  0
   -4.0219    2.5585   12.4379 C   0  0  0  0  0  0  0  0  0  0  0  0
   -4.5174    3.2074   11.4415 C   0  0  0  0  0  0  0  0  0  0  0  0
   -3.7816    4.5601   11.2438 C   0  0  0  0  0  0  0  0  0  0  0  0
   -3.8037    5.2190   12.5947 C   0  0  0  0  0  0  0  0  0  0  0  0
   -2.9297    4.4811   13.5686 C   0  0  0  0  0  0  0  0  0  0  0  0
   -2.9049    3.0194   13.3267 C   0  0  0  0  0  0  0  0  0  0  0  0
   -2.3565    4.2594   10.8704 C   0  0  0  0  0  0  0  0  0  0  0  0
   -4.4321    5.4053   10.1964 C   0  0  0  0  0  0  0  0  0  0  0  0
   -5.6555    2.9327   10.6342 C   0  0  0  0  0  0  0  0  0  0  0  0
   -6.1046    2.5108    9.5442 C   0  0  0  0  0  0  0  0  0  0  0  0
   -7.1976    2.0919    8.7299 C   0  0  0  0  0  0  0  0  0  0  0  0
   -6.8700    1.8654    7.4216 C   0  0  0  0  0  0  0  0  0  0  0  0
   -6.0585    0.8126    6.9097 C   0  0  0  0  0  0  0  0  0  0  0  0
   -6.0336    0.6060    5.5830 C   0  0  0  0  0  0  0  0  0  0  0  0
   -5.0432   -0.3401    5.0405 C   0  0  0  0  0  0  0  0  0  0  0  0
   -4.7826   -0.2911    3.7678 C   0  0  0  0  0  0  0  0  0  0  0  0
   -3.8933    0.6614    3.1062 C   0  0  0  0  0  0  0  0  0  0  0  0
   -4.6119    1.6084    2.2705 N   0  0  0  0  0  0  0  0  0  0  0  0
   -4.3662    1.4826    0.8719 C   0  0  0  0  0  0  0  0  0  0  0  0
   -2.9199    1.1331    0.6027 C   0  0  0  0  0  0  0  0  0  0  0  0
   -2.6388    1.0598   -0.8856 C   0  0  0  0  0  0  0  0  0  0  0  0
   -2.2672   -0.3552   -1.2972 C   0  0  0  0  0  0  0  0  0  0  0  0
   -1.5352   -0.3582   -2.6196 C   0  0  0  0  0  0  0  0  0  0  0  0
   -2.2273   -1.2619   -3.5890 C   0  0  0  0  0  0  0  0  0  0  0  0
   -2.1976   -2.4951   -3.3226 O   0  0  0  0  0  0  0  0  0  0  0  0
   -2.8760   -0.8486   -4.7205 O   0  0  0  0  0  0  0  0  0  0  0  0
   -0.1494   -0.7109   -2.4627 N   0  0  0  0  0  0  0  0  0  0  0  0
   -4.4172   -1.2756    5.9937 C   0  0  0  0  0  0  0  0  0  0  0  0
   -8.6290    1.9456    8.9955 C   0  0  0  0  0  0  0  0  0  0  0  0
  1  2  1  0
  2  3  2  0
  3  4  1  0
  4  5  1  0
  5  6  1  0
  6  7  1  0
  4  8  1  0
  4  9  1  0
  3 10  1  0
 10 11  2  3
 11 12  1  0
 12 13  2  3
 13 14  1  0
 14 15  2  3
 15 16  1  0
 16 17  2  3
 17 18  1  0
 18 19  1  0
 19 20  1  0
 20 21  1  0
 21 22  1  0
 22 23  1  0
 23 24  1  0
 24 25  1  0
 25 26  2  0
 25 27  1  0
 24 28  1  0
 16 29  1  0
 12 30  1  0
  7  2  1  0
M  END
$$$$
