
     RDKit          3D

 30 30  0  0  0  0  0  0  0  0999 V2000
   -9.0404    4.0600   11.4236 C   0  0  0  0  0  0  0  0  0  0  0  0
   -9.2485    3.9048    9.9718 C   0  0  0  0  0  0  0  0  0  0  0  0
   -8.6173    2.9742    9.3435 C   0  0  0  0  0  0  0  0  0  0  0  0
   -8.9652    2.9966    7.8306 C   0  0  0  0  0  0  0  0  0  0  0  0
  -10.4673    2.9909    7.7742 C   0  0  0  0  0  0  0  0  0  0  0  0
  -11.0307    4.2865    8.2849 C   0  0  0  0  0  0  0  0  0  0  0  0
  -10.2146    4.8814    9.3693 C   0  0  0  0  0  0  0  0  0  0  0  0
   -8.4600    4.2929    7.2606 C   0  0  0  0  0  0  0  0  0  0  0  0
   -8.3718    1.8348    7.1008 C   0  0  0  0  0  0  0  0  0  0  0  0
   -7.8020    1.9173    9.8340 C   0  0  0  0  0  0  0  0  0  0  0  0
   -6.6551    1.5171   10.1379 C   0  0  0  0  0  0  0  0  0  0  0  0
   -5.7860    0.5075   10.6463 C   0  0  0  0  0  0  0  0  0  0  0  0
   -4.4618    0.7166   10.3757 C   0  0  0  0  0  0  0  0  0  0  0  0
   -3.8709    0.9377    9.0986 C   0  0  0  0  0  0  0  0  0  0  0  0
   -2.5332    1.0187    9.0136 C   0  0  0  0  0  0  0  0  0  0  0  0
   -1.9288    1.2499    7.6902 C   0  0  0  0  0  0  0  0  0  0  0  0
   -2.6511    1.0090    6.6365 C   0  0  0  0  0  0  0  0  0  0  0  0
   -2.1516    0.7939    5.2801 C   0  0  0  0  0  0  0  0  0  0  0  0
   -3.0533   -0.0121    4.4745 N   0  0  0  0  0  0  0  0  0  0  0  0
   -2.8307    0.0611    3.0683 C   0  0  0  0  0  0  0  0  0  0  0  0
   -1.3680    0.2889    2.7599 C   0  0  0  0  0  0  0  0  0  0  0  0
   -0.6513   -1.0201    2.4913 C   0  0  0  0  0  0  0  0  0  0  0  0
    0.8329   -0.7876    2.2619 C   0  0  0  0  0  0  0  0  0  0  0  0
    1.2917   -1.4488    0.9825 C   0  0  0  0  0  0  0  0  0  0  0  0
    1.4633   -2.9187    1.1955 C   0  0  0  0  0  0  0  0  0  0  0  0
    0.4976   -3.6509    0.8434 O   0  0  0  0  0  0  0  0  0  0  0  0
    2.5738   -3.5084    1.7348 O   0  0  0  0  0  0  0  0  0  0  0  0
    2.4916   -0.8439    0.4687 N   0  0  0  0  0  0  0  0  0  0  0  0
   -0.5392    1.7439    7.6647 C   0  0  0  0  0  0  0  0  0  0  0  0
   -6.0383   -0.7649   11.3230 C   0  0  0  0  0  0  0  0  0  0  0  0
  1  2  1  0
  2  3  2  0
  3  4  1  0
  4  5  1  0
  5  6  1  0
  6  7  1  0
  4  8  1  0
  4  9  1  0
  3 10  1  0
 10 11  2  3
 11 12  1  0
 12 13  2  3
 13 14  1  0
 14 15  2  3
 15 16  1  0
 16 17  2  3
 17 18  1  0
 18 19  1  0
 19 20  1  0
 20 21  1  0
 21 22  1  0
 22 23  1  0
 23 24  1  0
 24 25  1  0
 25 26  2  0
 25 27  1  0
 24 28  1  0
 16 29  1  0
 12 30  1  0
  7  2  1  0
M  END
$$$$
