
     RDKit          3D

 30 30  0  0  0  0  0  0  0  0999 V2000
  -14.1566    4.8898    7.0949 C   0  0  0  0  0  0  0  0  0  0  0  0
  -14.4871    3.5080    6.6994 C   0  0  0  0  0  0  0  0  0  0  0  0
  -13.6159    2.5773    6.8840 C   0  0  0  0  0  0  0  0  0  0  0  0
  -14.1562    1.2097    6.3856 C   0  0  0  0  0  0  0  0  0  0  0  0
  -15.5000    1.0570    7.0418 C   0  0  0  0  0  0  0  0  0  0  0  0
  -16.4851    2.0478    6.4897 C   0  0  0  0  0  0  0  0  0  0  0  0
  -15.8559    3.3349    6.1108 C   0  0  0  0  0  0  0  0  0  0  0  0
  -14.3474    1.3043    4.8973 C   0  0  0  0  0  0  0  0  0  0  0  0
  -13.2340    0.0837    6.7266 C   0  0  0  0  0  0  0  0  0  0  0  0
  -12.3631    2.6046    7.5564 C   0  0  0  0  0  0  0  0  0  0  0  0
  -11.4706    3.2888    8.1069 C   0  0  0  0  0  0  0  0  0  0  0  0
  -10.3414    3.3934    8.9713 C   0  0  0  0  0  0  0  0  0  0  0  0
   -9.1375    3.2113    8.3486 C   0  0  0  0  0  0  0  0  0  0  0  0
   -7.9932    2.5428    8.8708 C   0  0  0  0  0  0  0  0  0  0  0  0
   -6.9118    2.4092    8.0859 C   0  0  0  0  0  0  0  0  0  0  0  0
   -5.9393    1.3508    8.4086 C   0  0  0  0  0  0  0  0  0  0  0  0
   -4.8346    1.3050    7.7248 C   0  0  0  0  0  0  0  0  0  0  0  0
   -3.7539    2.2879    7.7664 C   0  0  0  0  0  0  0  0  0  0  0  0
   -2.4511    1.6769    7.9695 N   0  0  0  0  0  0  0  0  0  0  0  0
   -2.2433    0.4561    7.2634 C   0  0  0  0  0  0  0  0  0  0  0  0
   -1.2369    0.6362    6.1493 C   0  0  0  0  0  0  0  0  0  0  0  0
   -0.9194   -0.6843    5.4751 C   0  0  0  0  0  0  0  0  0  0  0  0
   -1.6353   -0.7961    4.1392 C   0  0  0  0  0  0  0  0  0  0  0  0
   -0.6908   -1.2694    3.0583 C   0  0  0  0  0  0  0  0  0  0  0  0
   -1.4084   -1.3564    1.7495 C   0  0  0  0  0  0  0  0  0  0  0  0
   -2.4836   -2.0172    1.7445 O   0  0  0  0  0  0  0  0  0  0  0  0
   -0.9851   -0.7795    0.5833 O   0  0  0  0  0  0  0  0  0  0  0  0
   -0.0654   -2.5180    3.4039 N   0  0  0  0  0  0  0  0  0  0  0  0
   -6.2977    0.4191    9.4945 C   0  0  0  0  0  0  0  0  0  0  0  0
  -10.2174    3.5644   10.4191 C   0  0  0  0  0  0  0  0  0  0  0  0
  1  2  1  0
  2  3  2  0
  3  4  1  0
  4  5  1  0
  5  6  1  0
  6  7  1  0
  4  8  1  0
  4  9  1  0
  3 10  1  0
 10 11  2  3
 11 12  1  0
 12 13  2  3
 13 14  1  0
 14 15  2  3
 15 16  1  0
 16 17  2  3
 17 18  1  0
 18 19  1  0
 19 20  1  0
 20 21  1  0
 21 22  1  0
 22 23  1  0
 23 24  1  0
 24 25  1  0
 25 26  2  0
 25 27  1  0
 24 28  1  0
 16 29  1  0
 12 30  1  0
  7  2  1  0
M  END
$$$$
