
     RDKit          3D

 30 30  0  0  0  0  0  0  0  0999 V2000
   -3.6696    3.0664   10.5850 C   0  0  0  0  0  0  0  0  0  0  0  0
   -4.2762    2.5292   11.8173 C   0  0  0  0  0  0  0  0  0  0  0  0
   -5.4499    2.0016   11.7603 C   0  0  0  0  0  0  0  0  0  0  0  0
   -5.9054    1.5174   13.1633 C   0  0  0  0  0  0  0  0  0  0  0  0
   -4.7745    0.6666   13.6701 C   0  0  0  0  0  0  0  0  0  0  0  0
   -3.5606    1.5019   13.9622 C   0  0  0  0  0  0  0  0  0  0  0  0
   -3.4216    2.6563   13.0435 C   0  0  0  0  0  0  0  0  0  0  0  0
   -6.0408    2.7264   14.0468 C   0  0  0  0  0  0  0  0  0  0  0  0
   -7.1939    0.7618   13.1055 C   0  0  0  0  0  0  0  0  0  0  0  0
   -6.2753    1.7031   10.6414 C   0  0  0  0  0  0  0  0  0  0  0  0
   -6.7519    2.0782    9.5459 C   0  0  0  0  0  0  0  0  0  0  0  0
   -7.7939    2.0587    8.5728 C   0  0  0  0  0  0  0  0  0  0  0  0
   -7.3945    1.6542    7.3289 C   0  0  0  0  0  0  0  0  0  0  0  0
   -7.3480    2.4426    6.1435 C   0  0  0  0  0  0  0  0  0  0  0  0
   -6.1974    2.5001    5.4535 C   0  0  0  0  0  0  0  0  0  0  0  0
   -6.2551    2.8557    4.0251 C   0  0  0  0  0  0  0  0  0  0  0  0
   -5.8510    1.9755    3.1579 C   0  0  0  0  0  0  0  0  0  0  0  0
   -5.0720    0.7737    3.4488 C   0  0  0  0  0  0  0  0  0  0  0  0
   -3.8292    0.7186    2.6979 N   0  0  0  0  0  0  0  0  0  0  0  0
   -2.9641   -0.3597    3.0460 C   0  0  0  0  0  0  0  0  0  0  0  0
   -1.5147    0.0141    2.8314 C   0  0  0  0  0  0  0  0  0  0  0  0
   -1.1942    0.1520    1.3558 C   0  0  0  0  0  0  0  0  0  0  0  0
   -0.5479   -1.1155    0.8215 C   0  0  0  0  0  0  0  0  0  0  0  0
    0.9574   -0.9825    0.7909 C   0  0  0  0  0  0  0  0  0  0  0  0
    1.3943   -0.3737   -0.5029 C   0  0  0  0  0  0  0  0  0  0  0  0
    1.2871   -1.1023   -1.5278 O   0  0  0  0  0  0  0  0  0  0  0  0
    1.8913    0.8930   -0.6451 O   0  0  0  0  0  0  0  0  0  0  0  0
    1.6103   -2.2417    1.0314 N   0  0  0  0  0  0  0  0  0  0  0  0
   -6.7743    4.1945    3.6877 C   0  0  0  0  0  0  0  0  0  0  0  0
   -9.1950    2.4779    8.6164 C   0  0  0  0  0  0  0  0  0  0  0  0
  1  2  1  0
  2  3  2  0
  3  4  1  0
  4  5  1  0
  5  6  1  0
  6  7  1  0
  4  8  1  0
  4  9  1  0
  3 10  1  0
 10 11  2  3
 11 12  1  0
 12 13  2  3
 13 14  1  0
 14 15  2  3
 15 16  1  0
 16 17  2  3
 17 18  1  0
 18 19  1  0
 19 20  1  0
 20 21  1  0
 21 22  1  0
 22 23  1  0
 23 24  1  0
 24 25  1  0
 25 26  2  0
 25 27  1  0
 24 28  1  0
 16 29  1  0
 12 30  1  0
  7  2  1  0
M  END
$$$$
