
     RDKit          3D

 30 30  0  0  0  0  0  0  0  0999 V2000
   -8.8093    0.3224    3.5883 C   0  0  0  0  0  0  0  0  0  0  0  0
   -8.2384    1.2883    2.6311 C   0  0  0  0  0  0  0  0  0  0  0  0
   -7.6620    2.3495    3.0792 C   0  0  0  0  0  0  0  0  0  0  0  0
   -7.1493    3.2336    1.9104 C   0  0  0  0  0  0  0  0  0  0  0  0
   -6.3437    2.3073    1.0430 C   0  0  0  0  0  0  0  0  0  0  0  0
   -7.2277    1.3011    0.3626 C   0  0  0  0  0  0  0  0  0  0  0  0
   -8.3932    0.9072    1.1886 C   0  0  0  0  0  0  0  0  0  0  0  0
   -8.3454    3.7119    1.1351 C   0  0  0  0  0  0  0  0  0  0  0  0
   -6.3402    4.3928    2.3964 C   0  0  0  0  0  0  0  0  0  0  0  0
   -7.3364    2.7324    4.4095 C   0  0  0  0  0  0  0  0  0  0  0  0
   -7.4578    3.5721    5.3304 C   0  0  0  0  0  0  0  0  0  0  0  0
   -6.9469    4.2272    6.4892 C   0  0  0  0  0  0  0  0  0  0  0  0
   -6.1324    3.4474    7.2631 C   0  0  0  0  0  0  0  0  0  0  0  0
   -6.4786    2.7816    8.4738 C   0  0  0  0  0  0  0  0  0  0  0  0
   -5.4968    2.4395    9.3238 C   0  0  0  0  0  0  0  0  0  0  0  0
   -4.9867    1.0581    9.2843 C   0  0  0  0  0  0  0  0  0  0  0  0
   -3.7369    0.8580    9.5809 C   0  0  0  0  0  0  0  0  0  0  0  0
   -3.2312    0.2028   10.7854 C   0  0  0  0  0  0  0  0  0  0  0  0
   -1.7865    0.2990   10.9085 N   0  0  0  0  0  0  0  0  0  0  0  0
   -1.0618    0.0229    9.7123 C   0  0  0  0  0  0  0  0  0  0  0  0
   -0.8620   -1.4646    9.5279 C   0  0  0  0  0  0  0  0  0  0  0  0
    0.5968   -1.7983    9.2839 C   0  0  0  0  0  0  0  0  0  0  0  0
    1.4276   -1.5369   10.5293 C   0  0  0  0  0  0  0  0  0  0  0  0
    2.1941   -2.7742   10.9368 C   0  0  0  0  0  0  0  0  0  0  0  0
    3.6649   -2.5225   10.8440 C   0  0  0  0  0  0  0  0  0  0  0  0
    4.4051   -3.5438   10.8014 O   0  0  0  0  0  0  0  0  0  0  0  0
    4.2477   -1.2853   10.8031 O   0  0  0  0  0  0  0  0  0  0  0  0
    1.8033   -3.9236   10.1648 N   0  0  0  0  0  0  0  0  0  0  0  0
   -5.9440    0.0001    8.9104 C   0  0  0  0  0  0  0  0  0  0  0  0
   -7.1970    5.5467    7.0698 C   0  0  0  0  0  0  0  0  0  0  0  0
  1  2  1  0
  2  3  2  0
  3  4  1  0
  4  5  1  0
  5  6  1  0
  6  7  1  0
  4  8  1  0
  4  9  1  0
  3 10  1  0
 10 11  2  3
 11 12  1  0
 12 13  2  3
 13 14  1  0
 14 15  2  3
 15 16  1  0
 16 17  2  3
 17 18  1  0
 18 19  1  0
 19 20  1  0
 20 21  1  0
 21 22  1  0
 22 23  1  0
 23 24  1  0
 24 25  1  0
 25 26  2  0
 25 27  1  0
 24 28  1  0
 16 29  1  0
 12 30  1  0
  7  2  1  0
M  END
$$$$
