
     RDKit          3D

 30 30  0  0  0  0  0  0  0  0999 V2000
   -9.0797    2.3801    4.2160 C   0  0  0  0  0  0  0  0  0  0  0  0
   -7.8161    3.0041    3.7810 C   0  0  0  0  0  0  0  0  0  0  0  0
   -6.9871    3.4285    4.6709 C   0  0  0  0  0  0  0  0  0  0  0  0
   -5.7372    4.0620    4.0024 C   0  0  0  0  0  0  0  0  0  0  0  0
   -5.2521    3.0303    3.0226 C   0  0  0  0  0  0  0  0  0  0  0  0
   -6.2190    2.8719    1.8838 C   0  0  0  0  0  0  0  0  0  0  0  0
   -7.6290    3.0699    2.2941 C   0  0  0  0  0  0  0  0  0  0  0  0
   -6.1872    5.2807    3.2455 C   0  0  0  0  0  0  0  0  0  0  0  0
   -4.6873    4.4228    5.0033 C   0  0  0  0  0  0  0  0  0  0  0  0
   -6.9984    3.2875    6.0859 C   0  0  0  0  0  0  0  0  0  0  0  0
   -7.6714    3.1285    7.1297 C   0  0  0  0  0  0  0  0  0  0  0  0
   -7.7494    2.8774    8.5312 C   0  0  0  0  0  0  0  0  0  0  0  0
   -6.6945    2.1677    9.0351 C   0  0  0  0  0  0  0  0  0  0  0  0
   -6.6356    0.7629    9.2636 C   0  0  0  0  0  0  0  0  0  0  0  0
   -6.0808    0.3188   10.4030 C   0  0  0  0  0  0  0  0  0  0  0  0
   -4.6152    0.3807   10.5382 C   0  0  0  0  0  0  0  0  0  0  0  0
   -3.9000   -0.4494    9.8386 C   0  0  0  0  0  0  0  0  0  0  0  0
   -2.6332   -0.1485    9.1751 C   0  0  0  0  0  0  0  0  0  0  0  0
   -1.7775   -1.3163    9.0494 N   0  0  0  0  0  0  0  0  0  0  0  0
   -0.6224   -1.1301    8.2350 C   0  0  0  0  0  0  0  0  0  0  0  0
   -0.9963   -0.5757    6.8788 C   0  0  0  0  0  0  0  0  0  0  0  0
   -0.2682   -1.3043    5.7661 C   0  0  0  0  0  0  0  0  0  0  0  0
   -1.0841   -1.2884    4.4840 C   0  0  0  0  0  0  0  0  0  0  0  0
   -0.4529   -2.1704    3.4313 C   0  0  0  0  0  0  0  0  0  0  0  0
   -0.4211   -1.4600    2.1161 C   0  0  0  0  0  0  0  0  0  0  0  0
   -0.7934   -2.1271    1.1115 O   0  0  0  0  0  0  0  0  0  0  0  0
   -0.0238   -0.1635    1.9346 O   0  0  0  0  0  0  0  0  0  0  0  0
   -1.1177   -3.4423    3.3309 N   0  0  0  0  0  0  0  0  0  0  0  0
   -4.0691    1.3913   11.4635 C   0  0  0  0  0  0  0  0  0  0  0  0
   -8.7859    3.1479    9.5277 C   0  0  0  0  0  0  0  0  0  0  0  0
  1  2  1  0
  2  3  2  0
  3  4  1  0
  4  5  1  0
  5  6  1  0
  6  7  1  0
  4  8  1  0
  4  9  1  0
  3 10  1  0
 10 11  2  3
 11 12  1  0
 12 13  2  3
 13 14  1  0
 14 15  2  3
 15 16  1  0
 16 17  2  3
 17 18  1  0
 18 19  1  0
 19 20  1  0
 20 21  1  0
 21 22  1  0
 22 23  1  0
 23 24  1  0
 24 25  1  0
 25 26  2  0
 25 27  1  0
 24 28  1  0
 16 29  1  0
 12 30  1  0
  7  2  1  0
M  END
$$$$
