
     RDKit          3D

 30 30  0  0  0  0  0  0  0  0999 V2000
  -10.8051    3.2793    9.3934 C   0  0  0  0  0  0  0  0  0  0  0  0
   -9.8008    2.4232   10.0518 C   0  0  0  0  0  0  0  0  0  0  0  0
   -8.5671    2.5134    9.6923 C   0  0  0  0  0  0  0  0  0  0  0  0
   -7.6851    1.5186   10.4941 C   0  0  0  0  0  0  0  0  0  0  0  0
   -8.0190    1.7746   11.9372 C   0  0  0  0  0  0  0  0  0  0  0  0
   -9.4209    1.3360   12.2521 C   0  0  0  0  0  0  0  0  0  0  0  0
  -10.3497    1.5143   11.1114 C   0  0  0  0  0  0  0  0  0  0  0  0
   -8.1176    0.1246   10.1327 C   0  0  0  0  0  0  0  0  0  0  0  0
   -6.2291    1.7066   10.2130 C   0  0  0  0  0  0  0  0  0  0  0  0
   -7.9252    3.4298    8.8145 C   0  0  0  0  0  0  0  0  0  0  0  0
   -7.5692    4.6088    8.5889 C   0  0  0  0  0  0  0  0  0  0  0  0
   -7.2018    5.6427    7.6782 C   0  0  0  0  0  0  0  0  0  0  0  0
   -5.9655    5.4836    7.1155 C   0  0  0  0  0  0  0  0  0  0  0  0
   -4.8444    4.8120    7.6821 C   0  0  0  0  0  0  0  0  0  0  0  0
   -3.6359    4.9947    7.1256 C   0  0  0  0  0  0  0  0  0  0  0  0
   -3.4938    4.7807    5.6751 C   0  0  0  0  0  0  0  0  0  0  0  0
   -3.5799    3.5645    5.2241 C   0  0  0  0  0  0  0  0  0  0  0  0
   -3.7350    3.1731    3.8247 C   0  0  0  0  0  0  0  0  0  0  0  0
   -3.7303    1.7312    3.6444 N   0  0  0  0  0  0  0  0  0  0  0  0
   -2.6929    1.0423    4.3382 C   0  0  0  0  0  0  0  0  0  0  0  0
   -1.4782    0.8573    3.4567 C   0  0  0  0  0  0  0  0  0  0  0  0
   -0.7925   -0.4662    3.7344 C   0  0  0  0  0  0  0  0  0  0  0  0
    0.4239   -0.6437    2.8409 C   0  0  0  0  0  0  0  0  0  0  0  0
    0.6919   -2.1078    2.5781 C   0  0  0  0  0  0  0  0  0  0  0  0
    0.8661   -2.8393    3.8703 C   0  0  0  0  0  0  0  0  0  0  0  0
    0.2406   -3.9296    3.9840 O   0  0  0  0  0  0  0  0  0  0  0  0
    1.6416   -2.4137    4.9139 O   0  0  0  0  0  0  0  0  0  0  0  0
    1.8204   -2.2966    1.7059 N   0  0  0  0  0  0  0  0  0  0  0  0
   -3.2656    5.9750    4.8401 C   0  0  0  0  0  0  0  0  0  0  0  0
   -7.8488    6.8975    7.2941 C   0  0  0  0  0  0  0  0  0  0  0  0
  1  2  1  0
  2  3  2  0
  3  4  1  0
  4  5  1  0
  5  6  1  0
  6  7  1  0
  4  8  1  0
  4  9  1  0
  3 10  1  0
 10 11  2  3
 11 12  1  0
 12 13  2  3
 13 14  1  0
 14 15  2  3
 15 16  1  0
 16 17  2  3
 17 18  1  0
 18 19  1  0
 19 20  1  0
 20 21  1  0
 21 22  1  0
 22 23  1  0
 23 24  1  0
 24 25  1  0
 25 26  2  0
 25 27  1  0
 24 28  1  0
 16 29  1  0
 12 30  1  0
  7  2  1  0
M  END
$$$$
