
     RDKit          3D

 30 30  0  0  0  0  0  0  0  0999 V2000
   -8.0354    2.1205   10.1140 C   0  0  0  0  0  0  0  0  0  0  0  0
   -7.2443    1.2846   11.0362 C   0  0  0  0  0  0  0  0  0  0  0  0
   -5.9606    1.3909   11.0344 C   0  0  0  0  0  0  0  0  0  0  0  0
   -5.3253    0.4155   12.0618 C   0  0  0  0  0  0  0  0  0  0  0  0
   -6.0520    0.6772   13.3513 C   0  0  0  0  0  0  0  0  0  0  0  0
   -7.4805    0.2197   13.2674 C   0  0  0  0  0  0  0  0  0  0  0  0
   -8.0559    0.3755   11.9107 C   0  0  0  0  0  0  0  0  0  0  0  0
   -5.6221   -0.9875   11.6099 C   0  0  0  0  0  0  0  0  0  0  0  0
   -3.8511    0.6235   12.1961 C   0  0  0  0  0  0  0  0  0  0  0  0
   -5.1106    2.3103   10.3603 C   0  0  0  0  0  0  0  0  0  0  0  0
   -4.9272    3.0532    9.3692 C   0  0  0  0  0  0  0  0  0  0  0  0
   -4.7734    4.3525    8.8024 C   0  0  0  0  0  0  0  0  0  0  0  0
   -5.4162    4.5247    7.6076 C   0  0  0  0  0  0  0  0  0  0  0  0
   -4.8939    4.2699    6.3071 C   0  0  0  0  0  0  0  0  0  0  0  0
   -5.7524    4.1399    5.2827 C   0  0  0  0  0  0  0  0  0  0  0  0
   -5.2132    3.7863    3.9582 C   0  0  0  0  0  0  0  0  0  0  0  0
   -5.4099    2.5785    3.5194 C   0  0  0  0  0  0  0  0  0  0  0  0
   -4.4316    1.4929    3.5154 C   0  0  0  0  0  0  0  0  0  0  0  0
   -3.5433    1.5461    2.3666 N   0  0  0  0  0  0  0  0  0  0  0  0
   -4.0382    0.9037    1.1942 C   0  0  0  0  0  0  0  0  0  0  0  0
   -3.0008    0.9044    0.0941 C   0  0  0  0  0  0  0  0  0  0  0  0
   -1.9302   -0.1395    0.3459 C   0  0  0  0  0  0  0  0  0  0  0  0
   -1.8029   -1.0813   -0.8400 C   0  0  0  0  0  0  0  0  0  0  0  0
   -1.0014   -2.3086   -0.4713 C   0  0  0  0  0  0  0  0  0  0  0  0
    0.4222   -2.1406   -0.8962 C   0  0  0  0  0  0  0  0  0  0  0  0
    0.7659   -2.7442   -1.9499 O   0  0  0  0  0  0  0  0  0  0  0  0
    1.3555   -1.3922   -0.2324 O   0  0  0  0  0  0  0  0  0  0  0  0
   -1.5792   -3.5081   -1.0163 N   0  0  0  0  0  0  0  0  0  0  0  0
   -4.4878    4.8414    3.2259 C   0  0  0  0  0  0  0  0  0  0  0  0
   -3.9822    5.5171    9.2001 C   0  0  0  0  0  0  0  0  0  0  0  0
  1  2  1  0
  2  3  2  0
  3  4  1  0
  4  5  1  0
  5  6  1  0
  6  7  1  0
  4  8  1  0
  4  9  1  0
  3 10  1  0
 10 11  2  3
 11 12  1  0
 12 13  2  3
 13 14  1  0
 14 15  2  3
 15 16  1  0
 16 17  2  3
 17 18  1  0
 18 19  1  0
 19 20  1  0
 20 21  1  0
 21 22  1  0
 22 23  1  0
 23 24  1  0
 24 25  1  0
 25 26  2  0
 25 27  1  0
 24 28  1  0
 16 29  1  0
 12 30  1  0
  7  2  1  0
M  END
$$$$
