
     RDKit          3D

 30 30  0  0  0  0  0  0  0  0999 V2000
   -8.6248    6.0675    9.3577 C   0  0  0  0  0  0  0  0  0  0  0  0
   -9.5390    4.9209    9.5146 C   0  0  0  0  0  0  0  0  0  0  0  0
   -9.3159    3.8444    8.8433 C   0  0  0  0  0  0  0  0  0  0  0  0
  -10.4003    2.7741    9.1415 C   0  0  0  0  0  0  0  0  0  0  0  0
  -10.4481    2.6723   10.6405 C   0  0  0  0  0  0  0  0  0  0  0  0
  -11.0125    3.9250   11.2480 C   0  0  0  0  0  0  0  0  0  0  0  0
  -10.6643    5.1441   10.4809 C   0  0  0  0  0  0  0  0  0  0  0  0
  -11.7179    3.3021    8.6456 C   0  0  0  0  0  0  0  0  0  0  0  0
  -10.0850    1.4614    8.4997 C   0  0  0  0  0  0  0  0  0  0  0  0
   -8.2138    3.4793    8.0221 C   0  0  0  0  0  0  0  0  0  0  0  0
   -7.0264    3.6917    7.6862 C   0  0  0  0  0  0  0  0  0  0  0  0
   -5.9060    3.4223    6.8463 C   0  0  0  0  0  0  0  0  0  0  0  0
   -4.7598    3.1055    7.5218 C   0  0  0  0  0  0  0  0  0  0  0  0
   -4.3089    1.8039    7.8844 C   0  0  0  0  0  0  0  0  0  0  0  0
   -3.1181    1.6817    8.4931 C   0  0  0  0  0  0  0  0  0  0  0  0
   -2.5927    0.3272    8.7371 C   0  0  0  0  0  0  0  0  0  0  0  0
   -1.5403   -0.0502    8.0737 C   0  0  0  0  0  0  0  0  0  0  0  0
   -1.1514   -1.4292    7.7864 C   0  0  0  0  0  0  0  0  0  0  0  0
    0.0143   -1.5121    6.9226 N   0  0  0  0  0  0  0  0  0  0  0  0
   -0.1307   -0.8761    5.6551 C   0  0  0  0  0  0  0  0  0  0  0  0
    0.2834   -1.8000    4.5320 C   0  0  0  0  0  0  0  0  0  0  0  0
   -0.4897   -1.5038    3.2616 C   0  0  0  0  0  0  0  0  0  0  0  0
    0.4555   -1.2694    2.0949 C   0  0  0  0  0  0  0  0  0  0  0  0
    0.5925   -2.5165    1.2520 C   0  0  0  0  0  0  0  0  0  0  0  0
    1.4451   -2.2382    0.0557 C   0  0  0  0  0  0  0  0  0  0  0  0
    0.8346   -2.0140   -1.0258 O   0  0  0  0  0  0  0  0  0  0  0  0
    2.8130   -2.2113    0.0570 O   0  0  0  0  0  0  0  0  0  0  0  0
   -0.6891   -3.0515    0.8765 N   0  0  0  0  0  0  0  0  0  0  0  0
   -3.3072   -0.5011    9.7266 C   0  0  0  0  0  0  0  0  0  0  0  0
   -5.7122    3.5095    5.3987 C   0  0  0  0  0  0  0  0  0  0  0  0
  1  2  1  0
  2  3  2  0
  3  4  1  0
  4  5  1  0
  5  6  1  0
  6  7  1  0
  4  8  1  0
  4  9  1  0
  3 10  1  0
 10 11  2  3
 11 12  1  0
 12 13  2  3
 13 14  1  0
 14 15  2  3
 15 16  1  0
 16 17  2  3
 17 18  1  0
 18 19  1  0
 19 20  1  0
 20 21  1  0
 21 22  1  0
 22 23  1  0
 23 24  1  0
 24 25  1  0
 25 26  2  0
 25 27  1  0
 24 28  1  0
 16 29  1  0
 12 30  1  0
  7  2  1  0
M  END
$$$$
