
     RDKit          3D

 30 30  0  0  0  0  0  0  0  0999 V2000
   -6.4346   -0.0060   12.7120 C   0  0  0  0  0  0  0  0  0  0  0  0
   -5.0902    0.4444   12.3058 C   0  0  0  0  0  0  0  0  0  0  0  0
   -4.9512    1.0813   11.1948 C   0  0  0  0  0  0  0  0  0  0  0  0
   -3.4618    1.4462   10.9513 C   0  0  0  0  0  0  0  0  0  0  0  0
   -3.0139    2.1269   12.2145 C   0  0  0  0  0  0  0  0  0  0  0  0
   -2.9564    1.1554   13.3590 C   0  0  0  0  0  0  0  0  0  0  0  0
   -3.9959    0.1028   13.2731 C   0  0  0  0  0  0  0  0  0  0  0  0
   -2.6937    0.1640   10.7887 C   0  0  0  0  0  0  0  0  0  0  0  0
   -3.2868    2.3196    9.7508 C   0  0  0  0  0  0  0  0  0  0  0  0
   -5.9260    1.5779   10.2862 C   0  0  0  0  0  0  0  0  0  0  0  0
   -6.2402    1.8245    9.0996 C   0  0  0  0  0  0  0  0  0  0  0  0
   -7.0066    1.5367    7.9321 C   0  0  0  0  0  0  0  0  0  0  0  0
   -7.3158    2.6344    7.1773 C   0  0  0  0  0  0  0  0  0  0  0  0
   -6.5530    3.1825    6.1064 C   0  0  0  0  0  0  0  0  0  0  0  0
   -6.7134    2.6721    4.8747 C   0  0  0  0  0  0  0  0  0  0  0  0
   -5.8915    3.2153    3.7795 C   0  0  0  0  0  0  0  0  0  0  0  0
   -4.8431    2.5420    3.4085 C   0  0  0  0  0  0  0  0  0  0  0  0
   -4.2393    2.5513    2.0778 C   0  0  0  0  0  0  0  0  0  0  0  0
   -5.2022    2.2720    1.0259 N   0  0  0  0  0  0  0  0  0  0  0  0
   -4.9124    1.1212    0.2361 C   0  0  0  0  0  0  0  0  0  0  0  0
   -3.5088    1.1841   -0.3229 C   0  0  0  0  0  0  0  0  0  0  0  0
   -3.0287   -0.1857   -0.7616 C   0  0  0  0  0  0  0  0  0  0  0  0
   -2.5619   -0.1583   -2.2075 C   0  0  0  0  0  0  0  0  0  0  0  0
   -1.0830   -0.4557   -2.3033 C   0  0  0  0  0  0  0  0  0  0  0  0
   -0.8516   -1.6345   -3.1934 C   0  0  0  0  0  0  0  0  0  0  0  0
   -0.0857   -2.5317   -2.7448 O   0  0  0  0  0  0  0  0  0  0  0  0
   -1.4033   -1.8004   -4.4343 O   0  0  0  0  0  0  0  0  0  0  0  0
   -0.4910   -0.6467   -1.0061 N   0  0  0  0  0  0  0  0  0  0  0  0
   -6.3285    4.4913    3.1824 C   0  0  0  0  0  0  0  0  0  0  0  0
   -7.6126    0.3047    7.4264 C   0  0  0  0  0  0  0  0  0  0  0  0
  1  2  1  0
  2  3  2  0
  3  4  1  0
  4  5  1  0
  5  6  1  0
  6  7  1  0
  4  8  1  0
  4  9  1  0
  3 10  1  0
 10 11  2  3
 11 12  1  0
 12 13  2  3
 13 14  1  0
 14 15  2  3
 15 16  1  0
 16 17  2  3
 17 18  1  0
 18 19  1  0
 19 20  1  0
 20 21  1  0
 21 22  1  0
 22 23  1  0
 23 24  1  0
 24 25  1  0
 25 26  2  0
 25 27  1  0
 24 28  1  0
 16 29  1  0
 12 30  1  0
  7  2  1  0
M  END
$$$$
