
     RDKit          3D

 30 30  0  0  0  0  0  0  0  0999 V2000
  -12.0912    2.3303    9.3395 C   0  0  0  0  0  0  0  0  0  0  0  0
  -11.4762    2.8159    8.0900 C   0  0  0  0  0  0  0  0  0  0  0  0
  -10.2416    3.1834    8.1000 C   0  0  0  0  0  0  0  0  0  0  0  0
   -9.8008    3.6730    6.6942 C   0  0  0  0  0  0  0  0  0  0  0  0
  -10.2003    2.5713    5.7528 C   0  0  0  0  0  0  0  0  0  0  0  0
  -11.6951    2.4745    5.6399 C   0  0  0  0  0  0  0  0  0  0  0  0
  -12.3913    2.8203    6.9015 C   0  0  0  0  0  0  0  0  0  0  0  0
  -10.5942    4.9073    6.3662 C   0  0  0  0  0  0  0  0  0  0  0  0
   -8.3348    3.9591    6.6335 C   0  0  0  0  0  0  0  0  0  0  0  0
   -9.2567    3.0851    9.1211 C   0  0  0  0  0  0  0  0  0  0  0  0
   -8.1322    2.6602    9.4715 C   0  0  0  0  0  0  0  0  0  0  0  0
   -7.2817    2.0483   10.4386 C   0  0  0  0  0  0  0  0  0  0  0  0
   -5.9463    2.2444   10.2178 C   0  0  0  0  0  0  0  0  0  0  0  0
   -5.2406    2.0503    8.9958 C   0  0  0  0  0  0  0  0  0  0  0  0
   -3.9066    2.2038    8.9916 C   0  0  0  0  0  0  0  0  0  0  0  0
   -3.1833    2.0051    7.7237 C   0  0  0  0  0  0  0  0  0  0  0  0
   -3.7243    2.4593    6.6323 C   0  0  0  0  0  0  0  0  0  0  0  0
   -3.7986    1.7597    5.3514 C   0  0  0  0  0  0  0  0  0  0  0  0
   -3.7608    2.6669    4.2168 N   0  0  0  0  0  0  0  0  0  0  0  0
   -3.6737    2.0327    2.9431 C   0  0  0  0  0  0  0  0  0  0  0  0
   -3.0344    0.6672    3.0576 C   0  0  0  0  0  0  0  0  0  0  0  0
   -2.5079    0.1914    1.7175 C   0  0  0  0  0  0  0  0  0  0  0  0
   -1.8808   -1.1874    1.8409 C   0  0  0  0  0  0  0  0  0  0  0  0
   -0.3728   -1.1018    1.7854 C   0  0  0  0  0  0  0  0  0  0  0  0
    0.1490   -1.9347    0.6588 C   0  0  0  0  0  0  0  0  0  0  0  0
    0.6331   -3.0575    0.9715 O   0  0  0  0  0  0  0  0  0  0  0  0
    0.1363   -1.5675   -0.6591 O   0  0  0  0  0  0  0  0  0  0  0  0
    0.2299   -1.4685    3.0392 N   0  0  0  0  0  0  0  0  0  0  0  0
   -1.8884    1.3022    7.7933 C   0  0  0  0  0  0  0  0  0  0  0  0
   -7.5510    1.1674   11.5754 C   0  0  0  0  0  0  0  0  0  0  0  0
  1  2  1  0
  2  3  2  0
  3  4  1  0
  4  5  1  0
  5  6  1  0
  6  7  1  0
  4  8  1  0
  4  9  1  0
  3 10  1  0
 10 11  2  3
 11 12  1  0
 12 13  2  3
 13 14  1  0
 14 15  2  3
 15 16  1  0
 16 17  2  3
 17 18  1  0
 18 19  1  0
 19 20  1  0
 20 21  1  0
 21 22  1  0
 22 23  1  0
 23 24  1  0
 24 25  1  0
 25 26  2  0
 25 27  1  0
 24 28  1  0
 16 29  1  0
 12 30  1  0
  7  2  1  0
M  END
$$$$
