
     RDKit          3D

 30 30  0  0  0  0  0  0  0  0999 V2000
  -11.2170    3.6029    8.3052 C   0  0  0  0  0  0  0  0  0  0  0  0
  -10.9459    3.4144    6.8678 C   0  0  0  0  0  0  0  0  0  0  0  0
   -9.7288    3.2650    6.4733 C   0  0  0  0  0  0  0  0  0  0  0  0
   -9.6655    3.0996    4.9309 C   0  0  0  0  0  0  0  0  0  0  0  0
  -10.6480    2.0070    4.6137 C   0  0  0  0  0  0  0  0  0  0  0  0
  -12.0582    2.4614    4.8622 C   0  0  0  0  0  0  0  0  0  0  0  0
  -12.1659    3.4105    5.9951 C   0  0  0  0  0  0  0  0  0  0  0  0
  -10.1444    4.3824    4.3097 C   0  0  0  0  0  0  0  0  0  0  0  0
   -8.2866    2.7692    4.4577 C   0  0  0  0  0  0  0  0  0  0  0  0
   -8.5282    3.1096    7.2195 C   0  0  0  0  0  0  0  0  0  0  0  0
   -7.9490    3.1995    8.3260 C   0  0  0  0  0  0  0  0  0  0  0  0
   -6.7556    3.2076    9.1062 C   0  0  0  0  0  0  0  0  0  0  0  0
   -6.6050    2.1154    9.9154 C   0  0  0  0  0  0  0  0  0  0  0  0
   -5.8609    0.9339    9.6333 C   0  0  0  0  0  0  0  0  0  0  0  0
   -4.5664    0.8886    9.9877 C   0  0  0  0  0  0  0  0  0  0  0  0
   -3.8192   -0.3586    9.7504 C   0  0  0  0  0  0  0  0  0  0  0  0
   -2.5820   -0.2668    9.3618 C   0  0  0  0  0  0  0  0  0  0  0  0
   -1.7396    0.9246    9.4420 C   0  0  0  0  0  0  0  0  0  0  0  0
   -0.3973    0.6944    8.9350 N   0  0  0  0  0  0  0  0  0  0  0  0
    0.4053   -0.1734    9.7317 C   0  0  0  0  0  0  0  0  0  0  0  0
    1.4665   -0.8533    8.8961 C   0  0  0  0  0  0  0  0  0  0  0  0
    2.8466   -0.6578    9.4929 C   0  0  0  0  0  0  0  0  0  0  0  0
    3.4318   -1.9840    9.9494 C   0  0  0  0  0  0  0  0  0  0  0  0
    4.2686   -2.6096    8.8572 C   0  0  0  0  0  0  0  0  0  0  0  0
    3.8425   -4.0243    8.6286 C   0  0  0  0  0  0  0  0  0  0  0  0
    2.6454   -4.1961    8.2677 O   0  0  0  0  0  0  0  0  0  0  0  0
    4.6473   -5.1201    8.7815 O   0  0  0  0  0  0  0  0  0  0  0  0
    5.6755   -2.5194    9.1436 N   0  0  0  0  0  0  0  0  0  0  0  0
   -4.5396   -1.6255    9.9774 C   0  0  0  0  0  0  0  0  0  0  0  0
   -5.6984    4.2031    9.2852 C   0  0  0  0  0  0  0  0  0  0  0  0
  1  2  1  0
  2  3  2  0
  3  4  1  0
  4  5  1  0
  5  6  1  0
  6  7  1  0
  4  8  1  0
  4  9  1  0
  3 10  1  0
 10 11  2  3
 11 12  1  0
 12 13  2  3
 13 14  1  0
 14 15  2  3
 15 16  1  0
 16 17  2  3
 17 18  1  0
 18 19  1  0
 19 20  1  0
 20 21  1  0
 21 22  1  0
 22 23  1  0
 23 24  1  0
 24 25  1  0
 25 26  2  0
 25 27  1  0
 24 28  1  0
 16 29  1  0
 12 30  1  0
  7  2  1  0
M  END
$$$$
