
     RDKit          3D

 30 30  0  0  0  0  0  0  0  0999 V2000
  -10.1249    4.0431    8.5285 C   0  0  0  0  0  0  0  0  0  0  0  0
  -10.2573    3.1042    9.6581 C   0  0  0  0  0  0  0  0  0  0  0  0
   -9.3638    2.1911    9.8228 C   0  0  0  0  0  0  0  0  0  0  0  0
   -9.7009    1.3053   11.0525 C   0  0  0  0  0  0  0  0  0  0  0  0
   -9.9360    2.2724   12.1790 C   0  0  0  0  0  0  0  0  0  0  0  0
  -11.1946    3.0622   11.9575 C   0  0  0  0  0  0  0  0  0  0  0  0
  -11.4601    3.3321   10.5249 C   0  0  0  0  0  0  0  0  0  0  0  0
  -10.9831    0.5772   10.7584 C   0  0  0  0  0  0  0  0  0  0  0  0
   -8.6059    0.3365   11.3638 C   0  0  0  0  0  0  0  0  0  0  0  0
   -8.1254    1.9794    9.1565 C   0  0  0  0  0  0  0  0  0  0  0  0
   -6.9275    2.3149    9.0146 C   0  0  0  0  0  0  0  0  0  0  0  0
   -5.8596    3.2327    9.2394 C   0  0  0  0  0  0  0  0  0  0  0  0
   -5.3250    3.7642    8.0984 C   0  0  0  0  0  0  0  0  0  0  0  0
   -5.1047    3.0945    6.8606 C   0  0  0  0  0  0  0  0  0  0  0  0
   -4.4027    3.7238    5.9043 C   0  0  0  0  0  0  0  0  0  0  0  0
   -4.2632    3.0680    4.5925 C   0  0  0  0  0  0  0  0  0  0  0  0
   -3.2411    2.2871    4.4039 C   0  0  0  0  0  0  0  0  0  0  0  0
   -2.6337    1.9584    3.1160 C   0  0  0  0  0  0  0  0  0  0  0  0
   -3.4507    1.0503    2.3290 N   0  0  0  0  0  0  0  0  0  0  0  0
   -3.1190   -0.3292    2.4670 C   0  0  0  0  0  0  0  0  0  0  0  0
   -1.7223   -0.5005    3.0204 C   0  0  0  0  0  0  0  0  0  0  0  0
   -1.7239   -1.3758    4.2586 C   0  0  0  0  0  0  0  0  0  0  0  0
   -0.3067   -1.6231    4.7485 C   0  0  0  0  0  0  0  0  0  0  0  0
   -0.3121   -2.3736    6.0605 C   0  0  0  0  0  0  0  0  0  0  0  0
    1.0874   -2.5609    6.5522 C   0  0  0  0  0  0  0  0  0  0  0  0
    1.9413   -2.9063    5.6896 O   0  0  0  0  0  0  0  0  0  0  0  0
    1.4935   -2.3862    7.8470 O   0  0  0  0  0  0  0  0  0  0  0  0
   -1.0096   -3.6275    5.9562 N   0  0  0  0  0  0  0  0  0  0  0  0
   -5.3056    3.3496    3.5877 C   0  0  0  0  0  0  0  0  0  0  0  0
   -5.1543    3.6509   10.4512 C   0  0  0  0  0  0  0  0  0  0  0  0
  1  2  1  0
  2  3  2  0
  3  4  1  0
  4  5  1  0
  5  6  1  0
  6  7  1  0
  4  8  1  0
  4  9  1  0
  3 10  1  0
 10 11  2  3
 11 12  1  0
 12 13  2  3
 13 14  1  0
 14 15  2  3
 15 16  1  0
 16 17  2  3
 17 18  1  0
 18 19  1  0
 19 20  1  0
 20 21  1  0
 21 22  1  0
 22 23  1  0
 23 24  1  0
 24 25  1  0
 25 26  2  0
 25 27  1  0
 24 28  1  0
 16 29  1  0
 12 30  1  0
  7  2  1  0
M  END
$$$$
