
     RDKit          3D

 30 30  0  0  0  0  0  0  0  0999 V2000
   -8.7255    1.1885   10.1896 C   0  0  0  0  0  0  0  0  0  0  0  0
   -7.4761    1.9232   10.4622 C   0  0  0  0  0  0  0  0  0  0  0  0
   -6.8919    2.5468    9.4983 C   0  0  0  0  0  0  0  0  0  0  0  0
   -5.5921    3.2355    9.9948 C   0  0  0  0  0  0  0  0  0  0  0  0
   -6.0071    4.0322   11.2001 C   0  0  0  0  0  0  0  0  0  0  0  0
   -6.3849    3.1288   12.3394 C   0  0  0  0  0  0  0  0  0  0  0  0
   -7.0131    1.8650   11.8878 C   0  0  0  0  0  0  0  0  0  0  0  0
   -4.6359    2.1587   10.4268 C   0  0  0  0  0  0  0  0  0  0  0  0
   -4.9738    4.0951    8.9396 C   0  0  0  0  0  0  0  0  0  0  0  0
   -7.3146    2.7846    8.1614 C   0  0  0  0  0  0  0  0  0  0  0  0
   -7.5516    2.3143    7.0254 C   0  0  0  0  0  0  0  0  0  0  0  0
   -7.8691    2.4964    5.6473 C   0  0  0  0  0  0  0  0  0  0  0  0
   -6.8809    3.0965    4.9168 C   0  0  0  0  0  0  0  0  0  0  0  0
   -5.9950    2.4705    3.9936 C   0  0  0  0  0  0  0  0  0  0  0  0
   -6.3333    2.4433    2.6943 C   0  0  0  0  0  0  0  0  0  0  0  0
   -5.3184    2.8292    1.6987 C   0  0  0  0  0  0  0  0  0  0  0  0
   -4.3382    2.0057    1.4724 C   0  0  0  0  0  0  0  0  0  0  0  0
   -4.1821    1.1545    0.2949 C   0  0  0  0  0  0  0  0  0  0  0  0
   -2.9678    0.3575    0.3391 N   0  0  0  0  0  0  0  0  0  0  0  0
   -3.0515   -0.8212    1.1365 C   0  0  0  0  0  0  0  0  0  0  0  0
   -1.7710   -1.0485    1.9079 C   0  0  0  0  0  0  0  0  0  0  0  0
   -1.9357   -0.6798    3.3695 C   0  0  0  0  0  0  0  0  0  0  0  0
   -1.4358   -1.7977    4.2695 C   0  0  0  0  0  0  0  0  0  0  0  0
   -0.3670   -1.2947    5.2125 C   0  0  0  0  0  0  0  0  0  0  0  0
    0.5901   -2.3957    5.5401 C   0  0  0  0  0  0  0  0  0  0  0  0
    1.7538   -2.0425    5.8775 O   0  0  0  0  0  0  0  0  0  0  0  0
    0.2936   -3.7306    5.4988 O   0  0  0  0  0  0  0  0  0  0  0  0
   -0.9328   -0.7133    6.4005 N   0  0  0  0  0  0  0  0  0  0  0  0
   -5.4974    4.1309    1.0284 C   0  0  0  0  0  0  0  0  0  0  0  0
   -9.0864    2.2529    4.8729 C   0  0  0  0  0  0  0  0  0  0  0  0
  1  2  1  0
  2  3  2  0
  3  4  1  0
  4  5  1  0
  5  6  1  0
  6  7  1  0
  4  8  1  0
  4  9  1  0
  3 10  1  0
 10 11  2  3
 11 12  1  0
 12 13  2  3
 13 14  1  0
 14 15  2  3
 15 16  1  0
 16 17  2  3
 17 18  1  0
 18 19  1  0
 19 20  1  0
 20 21  1  0
 21 22  1  0
 22 23  1  0
 23 24  1  0
 24 25  1  0
 25 26  2  0
 25 27  1  0
 24 28  1  0
 16 29  1  0
 12 30  1  0
  7  2  1  0
M  END
$$$$
