
     RDKit          3D

 30 30  0  0  0  0  0  0  0  0999 V2000
   -9.1053    1.0730    7.5096 C   0  0  0  0  0  0  0  0  0  0  0  0
   -9.4539    2.3652    6.8900 C   0  0  0  0  0  0  0  0  0  0  0  0
   -8.6538    2.8807    6.0221 C   0  0  0  0  0  0  0  0  0  0  0  0
   -9.1983    4.2417    5.5105 C   0  0  0  0  0  0  0  0  0  0  0  0
  -10.6132    3.9628    5.0862 C   0  0  0  0  0  0  0  0  0  0  0  0
  -11.4820    3.6591    6.2735 C   0  0  0  0  0  0  0  0  0  0  0  0
  -10.7543    2.9519    7.3534 C   0  0  0  0  0  0  0  0  0  0  0  0
   -9.2160    5.1969    6.6714 C   0  0  0  0  0  0  0  0  0  0  0  0
   -8.3745    4.7908    4.3905 C   0  0  0  0  0  0  0  0  0  0  0  0
   -7.4848    2.3481    5.4120 C   0  0  0  0  0  0  0  0  0  0  0  0
   -6.2657    2.4827    5.1602 C   0  0  0  0  0  0  0  0  0  0  0  0
   -5.0602    2.0063    4.5662 C   0  0  0  0  0  0  0  0  0  0  0  0
   -3.9744    2.0338    5.3974 C   0  0  0  0  0  0  0  0  0  0  0  0
   -3.7845    1.2736    6.5870 C   0  0  0  0  0  0  0  0  0  0  0  0
   -2.6494    1.4426    7.2844 C   0  0  0  0  0  0  0  0  0  0  0  0
   -2.7440    1.6125    8.7447 C   0  0  0  0  0  0  0  0  0  0  0  0
   -2.6981    0.5480    9.4894 C   0  0  0  0  0  0  0  0  0  0  0  0
   -2.3382    0.5013   10.9050 C   0  0  0  0  0  0  0  0  0  0  0  0
   -1.2563   -0.4304   11.1755 N   0  0  0  0  0  0  0  0  0  0  0  0
   -0.1337   -0.3170   10.3043 C   0  0  0  0  0  0  0  0  0  0  0  0
    0.4470   -1.6761    9.9849 C   0  0  0  0  0  0  0  0  0  0  0  0
    1.6344   -1.5616    9.0488 C   0  0  0  0  0  0  0  0  0  0  0  0
    1.3965   -2.3530    7.7734 C   0  0  0  0  0  0  0  0  0  0  0  0
    1.6410   -3.8274    7.9992 C   0  0  0  0  0  0  0  0  0  0  0  0
    3.0393   -4.0497    8.4795 C   0  0  0  0  0  0  0  0  0  0  0  0
    3.4841   -5.2266    8.3797 O   0  0  0  0  0  0  0  0  0  0  0  0
    3.8498   -3.0826    9.0083 O   0  0  0  0  0  0  0  0  0  0  0  0
    1.3555   -4.6031    6.8217 N   0  0  0  0  0  0  0  0  0  0  0  0
   -2.8819    2.9907    9.2519 C   0  0  0  0  0  0  0  0  0  0  0  0
   -4.7298    1.5791    3.2064 C   0  0  0  0  0  0  0  0  0  0  0  0
  1  2  1  0
  2  3  2  0
  3  4  1  0
  4  5  1  0
  5  6  1  0
  6  7  1  0
  4  8  1  0
  4  9  1  0
  3 10  1  0
 10 11  2  3
 11 12  1  0
 12 13  2  3
 13 14  1  0
 14 15  2  3
 15 16  1  0
 16 17  2  3
 17 18  1  0
 18 19  1  0
 19 20  1  0
 20 21  1  0
 21 22  1  0
 22 23  1  0
 23 24  1  0
 24 25  1  0
 25 26  2  0
 25 27  1  0
 24 28  1  0
 16 29  1  0
 12 30  1  0
  7  2  1  0
M  END
$$$$
