
     RDKit          3D

 30 30  0  0  0  0  0  0  0  0999 V2000
   -4.1284    1.8704    5.0845 C   0  0  0  0  0  0  0  0  0  0  0  0
   -5.4216    2.3331    4.5473 C   0  0  0  0  0  0  0  0  0  0  0  0
   -6.2909    2.8380    5.3528 C   0  0  0  0  0  0  0  0  0  0  0  0
   -7.5806    3.2426    4.5889 C   0  0  0  0  0  0  0  0  0  0  0  0
   -7.1065    4.0908    3.4420 C   0  0  0  0  0  0  0  0  0  0  0  0
   -6.3470    3.2677    2.4407 C   0  0  0  0  0  0  0  0  0  0  0  0
   -5.5816    2.1634    3.0656 C   0  0  0  0  0  0  0  0  0  0  0  0
   -8.2056    1.9887    4.0432 C   0  0  0  0  0  0  0  0  0  0  0  0
   -8.5465    3.9728    5.4653 C   0  0  0  0  0  0  0  0  0  0  0  0
   -6.1880    3.1741    6.7307 C   0  0  0  0  0  0  0  0  0  0  0  0
   -6.2495    2.7932    7.9219 C   0  0  0  0  0  0  0  0  0  0  0  0
   -6.4848    3.0639    9.3019 C   0  0  0  0  0  0  0  0  0  0  0  0
   -6.2785    1.9939   10.1283 C   0  0  0  0  0  0  0  0  0  0  0  0
   -5.3518    0.9289    9.9387 C   0  0  0  0  0  0  0  0  0  0  0  0
   -5.0509    0.1435   10.9856 C   0  0  0  0  0  0  0  0  0  0  0  0
   -4.1651   -1.0122   10.7617 C   0  0  0  0  0  0  0  0  0  0  0  0
   -2.9535   -0.7843   10.3491 C   0  0  0  0  0  0  0  0  0  0  0  0
   -2.5394   -0.5799    8.9626 C   0  0  0  0  0  0  0  0  0  0  0  0
   -1.4691   -1.4773    8.5615 N   0  0  0  0  0  0  0  0  0  0  0  0
   -1.7270   -2.2287    7.3779 C   0  0  0  0  0  0  0  0  0  0  0  0
   -2.1432   -1.3250    6.2392 C   0  0  0  0  0  0  0  0  0  0  0  0
   -1.1746   -1.4222    5.0766 C   0  0  0  0  0  0  0  0  0  0  0  0
   -1.6112   -0.5234    3.9316 C   0  0  0  0  0  0  0  0  0  0  0  0
   -0.6108   -0.5666    2.7994 C   0  0  0  0  0  0  0  0  0  0  0  0
   -0.8642   -1.7591    1.9338 C   0  0  0  0  0  0  0  0  0  0  0  0
    0.0675   -2.6075    1.8645 O   0  0  0  0  0  0  0  0  0  0  0  0
   -2.0142   -1.9855    1.2280 O   0  0  0  0  0  0  0  0  0  0  0  0
    0.7442   -0.5403    3.2820 N   0  0  0  0  0  0  0  0  0  0  0  0
   -4.7271   -2.3495   11.0285 C   0  0  0  0  0  0  0  0  0  0  0  0
   -6.9973    4.2402   10.0051 C   0  0  0  0  0  0  0  0  0  0  0  0
  1  2  1  0
  2  3  2  0
  3  4  1  0
  4  5  1  0
  5  6  1  0
  6  7  1  0
  4  8  1  0
  4  9  1  0
  3 10  1  0
 10 11  2  3
 11 12  1  0
 12 13  2  3
 13 14  1  0
 14 15  2  3
 15 16  1  0
 16 17  2  3
 17 18  1  0
 18 19  1  0
 19 20  1  0
 20 21  1  0
 21 22  1  0
 22 23  1  0
 23 24  1  0
 24 25  1  0
 25 26  2  0
 25 27  1  0
 24 28  1  0
 16 29  1  0
 12 30  1  0
  7  2  1  0
M  END
$$$$
