
     RDKit          3D

 30 30  0  0  0  0  0  0  0  0999 V2000
  -14.3893    2.5401    9.3980 C   0  0  0  0  0  0  0  0  0  0  0  0
  -14.2740    2.5767    7.9281 C   0  0  0  0  0  0  0  0  0  0  0  0
  -13.1289    2.3514    7.3829 C   0  0  0  0  0  0  0  0  0  0  0  0
  -13.2247    2.4546    5.8367 C   0  0  0  0  0  0  0  0  0  0  0  0
  -14.3740    1.5640    5.4553 C   0  0  0  0  0  0  0  0  0  0  0  0
  -15.6797    2.1367    5.9286 C   0  0  0  0  0  0  0  0  0  0  0  0
  -15.5543    2.8767    7.2063 C   0  0  0  0  0  0  0  0  0  0  0  0
  -13.5722    3.8758    5.4903 C   0  0  0  0  0  0  0  0  0  0  0  0
  -11.9522    2.0464    5.1669 C   0  0  0  0  0  0  0  0  0  0  0  0
  -11.9011    1.9206    7.9568 C   0  0  0  0  0  0  0  0  0  0  0  0
  -10.7103    2.1884    8.2362 C   0  0  0  0  0  0  0  0  0  0  0  0
   -9.7182    2.6109    9.1692 C   0  0  0  0  0  0  0  0  0  0  0  0
   -8.4333    2.4943    8.7154 C   0  0  0  0  0  0  0  0  0  0  0  0
   -7.7063    3.4444    7.9423 C   0  0  0  0  0  0  0  0  0  0  0  0
   -6.4782    3.1169    7.5088 C   0  0  0  0  0  0  0  0  0  0  0  0
   -5.7671    4.0680    6.6370 C   0  0  0  0  0  0  0  0  0  0  0  0
   -4.7013    3.6531    6.0190 C   0  0  0  0  0  0  0  0  0  0  0  0
   -4.5270    2.3496    5.3817 C   0  0  0  0  0  0  0  0  0  0  0  0
   -3.8273    2.4384    4.1112 N   0  0  0  0  0  0  0  0  0  0  0  0
   -2.4488    2.0780    4.1579 C   0  0  0  0  0  0  0  0  0  0  0  0
   -2.2774    0.5760    4.1237 C   0  0  0  0  0  0  0  0  0  0  0  0
   -0.9792    0.1851    3.4447 C   0  0  0  0  0  0  0  0  0  0  0  0
   -0.2224   -0.8399    4.2729 C   0  0  0  0  0  0  0  0  0  0  0  0
   -0.3661   -2.2238    3.6824 C   0  0  0  0  0  0  0  0  0  0  0  0
    0.5365   -3.1822    4.3910 C   0  0  0  0  0  0  0  0  0  0  0  0
    0.1634   -3.5587    5.5363 O   0  0  0  0  0  0  0  0  0  0  0  0
    1.7139   -3.6668    3.8902 O   0  0  0  0  0  0  0  0  0  0  0  0
   -0.1325   -2.2263    2.2629 N   0  0  0  0  0  0  0  0  0  0  0  0
   -6.3273    5.4283    6.5308 C   0  0  0  0  0  0  0  0  0  0  0  0
   -9.7961    3.0592   10.5597 C   0  0  0  0  0  0  0  0  0  0  0  0
  1  2  1  0
  2  3  2  0
  3  4  1  0
  4  5  1  0
  5  6  1  0
  6  7  1  0
  4  8  1  0
  4  9  1  0
  3 10  1  0
 10 11  2  3
 11 12  1  0
 12 13  2  3
 13 14  1  0
 14 15  2  3
 15 16  1  0
 16 17  2  3
 17 18  1  0
 18 19  1  0
 19 20  1  0
 20 21  1  0
 21 22  1  0
 22 23  1  0
 23 24  1  0
 24 25  1  0
 25 26  2  0
 25 27  1  0
 24 28  1  0
 16 29  1  0
 12 30  1  0
  7  2  1  0
M  END
$$$$
