
     RDKit          3D

 30 30  0  0  0  0  0  0  0  0999 V2000
  -11.7831    3.4297   10.9675 C   0  0  0  0  0  0  0  0  0  0  0  0
  -12.3566    3.0750    9.6559 C   0  0  0  0  0  0  0  0  0  0  0  0
  -11.5872    3.0409    8.6234 C   0  0  0  0  0  0  0  0  0  0  0  0
  -12.3907    2.6647    7.3493 C   0  0  0  0  0  0  0  0  0  0  0  0
  -13.1376    1.4119    7.7131 C   0  0  0  0  0  0  0  0  0  0  0  0
  -14.2044    1.6970    8.7316 C   0  0  0  0  0  0  0  0  0  0  0  0
  -13.8263    2.7755    9.6748 C   0  0  0  0  0  0  0  0  0  0  0  0
  -13.3813    3.7651    7.0875 C   0  0  0  0  0  0  0  0  0  0  0  0
  -11.5023    2.4643    6.1639 C   0  0  0  0  0  0  0  0  0  0  0  0
  -10.1742    3.1634    8.5196 C   0  0  0  0  0  0  0  0  0  0  0  0
   -9.1773    3.9189    8.4630 C   0  0  0  0  0  0  0  0  0  0  0  0
   -7.8138    4.1524    8.1173 C   0  0  0  0  0  0  0  0  0  0  0  0
   -6.9357    3.2496    8.6505 C   0  0  0  0  0  0  0  0  0  0  0  0
   -6.1011    2.3405    7.9390 C   0  0  0  0  0  0  0  0  0  0  0  0
   -5.3328    1.4899    8.6386 C   0  0  0  0  0  0  0  0  0  0  0  0
   -4.4837    0.5418    7.8966 C   0  0  0  0  0  0  0  0  0  0  0  0
   -3.2606    0.3686    8.3016 C   0  0  0  0  0  0  0  0  0  0  0  0
   -2.2100   -0.3529    7.5866 C   0  0  0  0  0  0  0  0  0  0  0  0
   -0.9584   -0.3919    8.3239 N   0  0  0  0  0  0  0  0  0  0  0  0
    0.1212   -1.0254    7.6418 C   0  0  0  0  0  0  0  0  0  0  0  0
    0.4092   -0.3410    6.3246 C   0  0  0  0  0  0  0  0  0  0  0  0
    0.8088   -1.3431    5.2590 C   0  0  0  0  0  0  0  0  0  0  0  0
    0.0710   -1.0731    3.9581 C   0  0  0  0  0  0  0  0  0  0  0  0
    1.0357   -0.9893    2.7975 C   0  0  0  0  0  0  0  0  0  0  0  0
    0.8316   -2.1471    1.8738 C   0  0  0  0  0  0  0  0  0  0  0  0
   -0.2271   -2.1341    1.1869 O   0  0  0  0  0  0  0  0  0  0  0  0
    1.6979   -3.1959    1.7278 O   0  0  0  0  0  0  0  0  0  0  0  0
    2.4009   -0.9005    3.2425 N   0  0  0  0  0  0  0  0  0  0  0  0
   -5.0949   -0.1449    6.7432 C   0  0  0  0  0  0  0  0  0  0  0  0
   -7.1517    5.2272    7.3776 C   0  0  0  0  0  0  0  0  0  0  0  0
  1  2  1  0
  2  3  2  0
  3  4  1  0
  4  5  1  0
  5  6  1  0
  6  7  1  0
  4  8  1  0
  4  9  1  0
  3 10  1  0
 10 11  2  3
 11 12  1  0
 12 13  2  3
 13 14  1  0
 14 15  2  3
 15 16  1  0
 16 17  2  3
 17 18  1  0
 18 19  1  0
 19 20  1  0
 20 21  1  0
 21 22  1  0
 22 23  1  0
 23 24  1  0
 24 25  1  0
 25 26  2  0
 25 27  1  0
 24 28  1  0
 16 29  1  0
 12 30  1  0
  7  2  1  0
M  END
$$$$
