
     RDKit          3D

 30 30  0  0  0  0  0  0  0  0999 V2000
   -0.8862    7.3816   10.3250 C   0  0  0  0  0  0  0  0  0  0  0  0
   -1.6727    7.7549   11.5155 C   0  0  0  0  0  0  0  0  0  0  0  0
   -2.9486    7.5784   11.5050 C   0  0  0  0  0  0  0  0  0  0  0  0
   -3.5814    8.0502   12.8419 C   0  0  0  0  0  0  0  0  0  0  0  0
   -2.7841    7.3645   13.9160 C   0  0  0  0  0  0  0  0  0  0  0  0
   -1.3845    7.9067   13.9775 C   0  0  0  0  0  0  0  0  0  0  0  0
   -0.8657    8.3128   12.6502 C   0  0  0  0  0  0  0  0  0  0  0  0
   -3.3729    9.5352   12.9518 C   0  0  0  0  0  0  0  0  0  0  0  0
   -5.0362    7.7163   12.9233 C   0  0  0  0  0  0  0  0  0  0  0  0
   -3.7842    6.9327   10.5525 C   0  0  0  0  0  0  0  0  0  0  0  0
   -4.2104    5.8573   10.0732 C   0  0  0  0  0  0  0  0  0  0  0  0
   -4.6159    5.0699    8.9557 C   0  0  0  0  0  0  0  0  0  0  0  0
   -4.3889    3.7290    9.1004 C   0  0  0  0  0  0  0  0  0  0  0  0
   -4.7693    2.6920    8.2010 C   0  0  0  0  0  0  0  0  0  0  0  0
   -5.8539    1.9548    8.4903 C   0  0  0  0  0  0  0  0  0  0  0  0
   -6.0764    0.7104    7.7339 C   0  0  0  0  0  0  0  0  0  0  0  0
   -5.8535    0.7240    6.4532 C   0  0  0  0  0  0  0  0  0  0  0  0
   -4.8201   -0.0333    5.7502 C   0  0  0  0  0  0  0  0  0  0  0  0
   -4.9424    0.0636    4.3054 N   0  0  0  0  0  0  0  0  0  0  0  0
   -3.8011    0.5996    3.6404 C   0  0  0  0  0  0  0  0  0  0  0  0
   -2.9177   -0.5027    3.1011 C   0  0  0  0  0  0  0  0  0  0  0  0
   -2.6984   -0.3523    1.6083 C   0  0  0  0  0  0  0  0  0  0  0  0
   -2.0059   -1.5783    1.0366 C   0  0  0  0  0  0  0  0  0  0  0  0
   -1.0902   -1.1984   -0.1044 C   0  0  0  0  0  0  0  0  0  0  0  0
   -0.6149   -2.4258   -0.8135 C   0  0  0  0  0  0  0  0  0  0  0  0
    0.5846   -2.4153   -1.2059 O   0  0  0  0  0  0  0  0  0  0  0  0
   -1.3779   -3.5345   -1.0592 O   0  0  0  0  0  0  0  0  0  0  0  0
    0.0091   -0.3841    0.3407 N   0  0  0  0  0  0  0  0  0  0  0  0
   -6.5363   -0.4651    8.4970 C   0  0  0  0  0  0  0  0  0  0  0  0
   -5.1438    5.4225    7.6375 C   0  0  0  0  0  0  0  0  0  0  0  0
  1  2  1  0
  2  3  2  0
  3  4  1  0
  4  5  1  0
  5  6  1  0
  6  7  1  0
  4  8  1  0
  4  9  1  0
  3 10  1  0
 10 11  2  3
 11 12  1  0
 12 13  2  3
 13 14  1  0
 14 15  2  3
 15 16  1  0
 16 17  2  3
 17 18  1  0
 18 19  1  0
 19 20  1  0
 20 21  1  0
 21 22  1  0
 22 23  1  0
 23 24  1  0
 24 25  1  0
 25 26  2  0
 25 27  1  0
 24 28  1  0
 16 29  1  0
 12 30  1  0
  7  2  1  0
M  END
$$$$
