
     RDKit          3D

 30 30  0  0  0  0  0  0  0  0999 V2000
   -9.4053    4.6353   10.4698 C   0  0  0  0  0  0  0  0  0  0  0  0
  -10.7488    4.4453    9.8918 C   0  0  0  0  0  0  0  0  0  0  0  0
  -10.8774    3.7388    8.8224 C   0  0  0  0  0  0  0  0  0  0  0  0
  -12.3632    3.6803    8.3757 C   0  0  0  0  0  0  0  0  0  0  0  0
  -13.1234    3.2510    9.5994 C   0  0  0  0  0  0  0  0  0  0  0  0
  -13.1120    4.3282   10.6464 C   0  0  0  0  0  0  0  0  0  0  0  0
  -11.8570    5.1162   10.6479 C   0  0  0  0  0  0  0  0  0  0  0  0
  -12.7870    5.0735    8.0012 C   0  0  0  0  0  0  0  0  0  0  0  0
  -12.5685    2.7427    7.2298 C   0  0  0  0  0  0  0  0  0  0  0  0
   -9.9279    2.9495    8.1168 C   0  0  0  0  0  0  0  0  0  0  0  0
   -8.8061    2.3933    8.1126 C   0  0  0  0  0  0  0  0  0  0  0  0
   -7.6596    1.9147    7.4128 C   0  0  0  0  0  0  0  0  0  0  0  0
   -6.5113    1.9038    8.1555 C   0  0  0  0  0  0  0  0  0  0  0  0
   -5.3026    1.2114    7.8573 C   0  0  0  0  0  0  0  0  0  0  0  0
   -4.1680    1.6107    8.4544 C   0  0  0  0  0  0  0  0  0  0  0  0
   -2.9537    0.7988    8.2639 C   0  0  0  0  0  0  0  0  0  0  0  0
   -2.9922   -0.1656    7.3929 C   0  0  0  0  0  0  0  0  0  0  0  0
   -2.2752   -0.2065    6.1201 C   0  0  0  0  0  0  0  0  0  0  0  0
   -2.6302   -1.3639    5.3163 N   0  0  0  0  0  0  0  0  0  0  0  0
   -1.5272   -2.1579    4.8863 C   0  0  0  0  0  0  0  0  0  0  0  0
   -1.4421   -2.1996    3.3771 C   0  0  0  0  0  0  0  0  0  0  0  0
   -0.6952   -0.9969    2.8341 C   0  0  0  0  0  0  0  0  0  0  0  0
    0.7333   -1.3660    2.4696 C   0  0  0  0  0  0  0  0  0  0  0  0
    1.0541   -0.9485    1.0528 C   0  0  0  0  0  0  0  0  0  0  0  0
    2.0366   -1.8983    0.4462 C   0  0  0  0  0  0  0  0  0  0  0  0
    1.7401   -3.1235    0.5069 O   0  0  0  0  0  0  0  0  0  0  0  0
    3.2095   -1.5342   -0.1567 O   0  0  0  0  0  0  0  0  0  0  0  0
    1.5218    0.4105    0.9889 N   0  0  0  0  0  0  0  0  0  0  0  0
   -1.7776    1.1489    9.0822 C   0  0  0  0  0  0  0  0  0  0  0  0
   -7.4453    1.5187    6.0207 C   0  0  0  0  0  0  0  0  0  0  0  0
  1  2  1  0
  2  3  2  0
  3  4  1  0
  4  5  1  0
  5  6  1  0
  6  7  1  0
  4  8  1  0
  4  9  1  0
  3 10  1  0
 10 11  2  3
 11 12  1  0
 12 13  2  3
 13 14  1  0
 14 15  2  3
 15 16  1  0
 16 17  2  3
 17 18  1  0
 18 19  1  0
 19 20  1  0
 20 21  1  0
 21 22  1  0
 22 23  1  0
 23 24  1  0
 24 25  1  0
 25 26  2  0
 25 27  1  0
 24 28  1  0
 16 29  1  0
 12 30  1  0
  7  2  1  0
M  END
$$$$
