
     RDKit          3D

 30 30  0  0  0  0  0  0  0  0999 V2000
  -11.4518    2.3405    8.4273 C   0  0  0  0  0  0  0  0  0  0  0  0
  -12.1911    2.0298    7.1895 C   0  0  0  0  0  0  0  0  0  0  0  0
  -11.5654    2.0491    6.0637 C   0  0  0  0  0  0  0  0  0  0  0  0
  -12.5274    1.7120    4.8926 C   0  0  0  0  0  0  0  0  0  0  0  0
  -13.2067    0.4341    5.2993 C   0  0  0  0  0  0  0  0  0  0  0  0
  -14.1314    0.6615    6.4612 C   0  0  0  0  0  0  0  0  0  0  0  0
  -13.6421    1.7071    7.3903 C   0  0  0  0  0  0  0  0  0  0  0  0
  -13.5550    2.8065    4.8105 C   0  0  0  0  0  0  0  0  0  0  0  0
  -11.8025    1.5731    3.5927 C   0  0  0  0  0  0  0  0  0  0  0  0
  -10.1801    2.1976    5.7790 C   0  0  0  0  0  0  0  0  0  0  0  0
   -9.0511    2.5693    6.1729 C   0  0  0  0  0  0  0  0  0  0  0  0
   -7.7576    3.1069    5.9065 C   0  0  0  0  0  0  0  0  0  0  0  0
   -7.1203    3.6107    7.0068 C   0  0  0  0  0  0  0  0  0  0  0  0
   -6.2673    2.9049    7.9030 C   0  0  0  0  0  0  0  0  0  0  0  0
   -6.3203    3.2031    9.2113 C   0  0  0  0  0  0  0  0  0  0  0  0
   -5.5359    2.3809   10.1488 C   0  0  0  0  0  0  0  0  0  0  0  0
   -4.9103    1.3432    9.6776 C   0  0  0  0  0  0  0  0  0  0  0  0
   -4.4291    0.2017   10.4528 C   0  0  0  0  0  0  0  0  0  0  0  0
   -3.0334   -0.1045   10.1880 N   0  0  0  0  0  0  0  0  0  0  0  0
   -2.6962   -0.2260    8.8083 C   0  0  0  0  0  0  0  0  0  0  0  0
   -1.1969   -0.2215    8.6119 C   0  0  0  0  0  0  0  0  0  0  0  0
   -0.6293   -1.6263    8.6728 C   0  0  0  0  0  0  0  0  0  0  0  0
    0.1513   -1.9499    7.4097 C   0  0  0  0  0  0  0  0  0  0  0  0
    1.6280   -1.6953    7.6073 C   0  0  0  0  0  0  0  0  0  0  0  0
    2.4192   -2.4185    6.5650 C   0  0  0  0  0  0  0  0  0  0  0  0
    2.7293   -1.7541    5.5378 O   0  0  0  0  0  0  0  0  0  0  0  0
    2.8198   -3.7239    6.6501 O   0  0  0  0  0  0  0  0  0  0  0  0
    2.0575   -2.0437    8.9354 N   0  0  0  0  0  0  0  0  0  0  0  0
   -5.5196    2.8054   11.5613 C   0  0  0  0  0  0  0  0  0  0  0  0
   -7.0094    3.3141    4.6664 C   0  0  0  0  0  0  0  0  0  0  0  0
  1  2  1  0
  2  3  2  0
  3  4  1  0
  4  5  1  0
  5  6  1  0
  6  7  1  0
  4  8  1  0
  4  9  1  0
  3 10  1  0
 10 11  2  3
 11 12  1  0
 12 13  2  3
 13 14  1  0
 14 15  2  3
 15 16  1  0
 16 17  2  3
 17 18  1  0
 18 19  1  0
 19 20  1  0
 20 21  1  0
 21 22  1  0
 22 23  1  0
 23 24  1  0
 24 25  1  0
 25 26  2  0
 25 27  1  0
 24 28  1  0
 16 29  1  0
 12 30  1  0
  7  2  1  0
M  END
$$$$
