
     RDKit          3D

 30 30  0  0  0  0  0  0  0  0999 V2000
   -4.2130    4.6912   10.8246 C   0  0  0  0  0  0  0  0  0  0  0  0
   -5.6646    4.9496   10.8587 C   0  0  0  0  0  0  0  0  0  0  0  0
   -6.4593    4.1468   10.2396 C   0  0  0  0  0  0  0  0  0  0  0  0
   -7.9343    4.6083   10.3877 C   0  0  0  0  0  0  0  0  0  0  0  0
   -8.1378    4.8013   11.8645 C   0  0  0  0  0  0  0  0  0  0  0  0
   -7.3485    5.9760   12.3683 C   0  0  0  0  0  0  0  0  0  0  0  0
   -6.0673    6.1607   11.6468 C   0  0  0  0  0  0  0  0  0  0  0  0
   -8.0730    5.9370    9.6978 C   0  0  0  0  0  0  0  0  0  0  0  0
   -8.8934    3.6156    9.8140 C   0  0  0  0  0  0  0  0  0  0  0  0
   -6.2007    2.9068    9.5933 C   0  0  0  0  0  0  0  0  0  0  0  0
   -6.2896    1.6581    9.6217 C   0  0  0  0  0  0  0  0  0  0  0  0
   -5.7325    0.3675    9.3830 C   0  0  0  0  0  0  0  0  0  0  0  0
   -5.6873    0.0094    8.0639 C   0  0  0  0  0  0  0  0  0  0  0  0
   -4.5245   -0.1472    7.2562 C   0  0  0  0  0  0  0  0  0  0  0  0
   -4.6771   -0.5047    5.9708 C   0  0  0  0  0  0  0  0  0  0  0  0
   -4.0028    0.2985    4.9362 C   0  0  0  0  0  0  0  0  0  0  0  0
   -2.7575    0.0353    4.6715 C   0  0  0  0  0  0  0  0  0  0  0  0
   -1.9637    0.6196    3.5926 C   0  0  0  0  0  0  0  0  0  0  0  0
   -0.6167    0.0776    3.5340 N   0  0  0  0  0  0  0  0  0  0  0  0
   -0.5116   -1.2064    2.9235 C   0  0  0  0  0  0  0  0  0  0  0  0
   -0.8503   -1.1385    1.4514 C   0  0  0  0  0  0  0  0  0  0  0  0
   -1.0123   -2.5249    0.8590 C   0  0  0  0  0  0  0  0  0  0  0  0
   -1.8774   -2.4823   -0.3898 C   0  0  0  0  0  0  0  0  0  0  0  0
   -1.1020   -2.9501   -1.6000 C   0  0  0  0  0  0  0  0  0  0  0  0
   -0.3115   -1.8184   -2.1740 C   0  0  0  0  0  0  0  0  0  0  0  0
   -0.8587   -0.6816   -2.1420 O   0  0  0  0  0  0  0  0  0  0  0  0
    0.9382   -1.9320   -2.7192 O   0  0  0  0  0  0  0  0  0  0  0  0
   -1.9608   -3.5505   -2.5858 N   0  0  0  0  0  0  0  0  0  0  0  0
   -4.8020    1.3464    4.2739 C   0  0  0  0  0  0  0  0  0  0  0  0
   -5.2828   -0.6965   10.2811 C   0  0  0  0  0  0  0  0  0  0  0  0
  1  2  1  0
  2  3  2  0
  3  4  1  0
  4  5  1  0
  5  6  1  0
  6  7  1  0
  4  8  1  0
  4  9  1  0
  3 10  1  0
 10 11  2  3
 11 12  1  0
 12 13  2  3
 13 14  1  0
 14 15  2  3
 15 16  1  0
 16 17  2  3
 17 18  1  0
 18 19  1  0
 19 20  1  0
 20 21  1  0
 21 22  1  0
 22 23  1  0
 23 24  1  0
 24 25  1  0
 25 26  2  0
 25 27  1  0
 24 28  1  0
 16 29  1  0
 12 30  1  0
  7  2  1  0
M  END
$$$$
