
     RDKit          3D

 30 30  0  0  0  0  0  0  0  0999 V2000
   -5.1539    5.4636   12.3631 C   0  0  0  0  0  0  0  0  0  0  0  0
   -6.1104    6.3921   11.7321 C   0  0  0  0  0  0  0  0  0  0  0  0
   -6.9375    5.9398   10.8542 C   0  0  0  0  0  0  0  0  0  0  0  0
   -7.8380    7.0797   10.3065 C   0  0  0  0  0  0  0  0  0  0  0  0
   -8.4032    7.7525   11.5262 C   0  0  0  0  0  0  0  0  0  0  0  0
   -7.3314    8.4830   12.2841 C   0  0  0  0  0  0  0  0  0  0  0  0
   -6.0128    7.8114   12.2075 C   0  0  0  0  0  0  0  0  0  0  0  0
   -6.9557    8.0537    9.5762 C   0  0  0  0  0  0  0  0  0  0  0  0
   -8.9108    6.5628    9.4029 C   0  0  0  0  0  0  0  0  0  0  0  0
   -7.2094    4.6062   10.4418 C   0  0  0  0  0  0  0  0  0  0  0  0
   -7.4242    3.8118    9.4982 C   0  0  0  0  0  0  0  0  0  0  0  0
   -7.6238    2.4865    9.0113 C   0  0  0  0  0  0  0  0  0  0  0  0
   -6.5990    2.0099    8.2411 C   0  0  0  0  0  0  0  0  0  0  0  0
   -5.3578    1.4796    8.6962 C   0  0  0  0  0  0  0  0  0  0  0  0
   -4.5328    0.9131    7.8008 C   0  0  0  0  0  0  0  0  0  0  0  0
   -3.6211   -0.1478    8.2625 C   0  0  0  0  0  0  0  0  0  0  0  0
   -2.6926   -0.5546    7.4485 C   0  0  0  0  0  0  0  0  0  0  0  0
   -2.8821   -0.9538    6.0555 C   0  0  0  0  0  0  0  0  0  0  0  0
   -1.6493   -1.4028    5.4308 N   0  0  0  0  0  0  0  0  0  0  0  0
   -1.7789   -1.8117    4.0713 C   0  0  0  0  0  0  0  0  0  0  0  0
   -1.2474   -0.7530    3.1315 C   0  0  0  0  0  0  0  0  0  0  0  0
    0.1035   -1.1463    2.5662 C   0  0  0  0  0  0  0  0  0  0  0  0
    0.0210   -1.3568    1.0634 C   0  0  0  0  0  0  0  0  0  0  0  0
    0.9429   -2.4706    0.6227 C   0  0  0  0  0  0  0  0  0  0  0  0
    1.7047   -2.0567   -0.5953 C   0  0  0  0  0  0  0  0  0  0  0  0
    2.2584   -0.9235   -0.5499 O   0  0  0  0  0  0  0  0  0  0  0  0
    1.8380   -2.8092   -1.7301 O   0  0  0  0  0  0  0  0  0  0  0  0
    0.2299   -3.7017    0.4091 N   0  0  0  0  0  0  0  0  0  0  0  0
   -3.8336   -0.6682    9.6262 C   0  0  0  0  0  0  0  0  0  0  0  0
   -8.7557    1.5631    9.0938 C   0  0  0  0  0  0  0  0  0  0  0  0
  1  2  1  0
  2  3  2  0
  3  4  1  0
  4  5  1  0
  5  6  1  0
  6  7  1  0
  4  8  1  0
  4  9  1  0
  3 10  1  0
 10 11  2  3
 11 12  1  0
 12 13  2  3
 13 14  1  0
 14 15  2  3
 15 16  1  0
 16 17  2  3
 17 18  1  0
 18 19  1  0
 19 20  1  0
 20 21  1  0
 21 22  1  0
 22 23  1  0
 23 24  1  0
 24 25  1  0
 25 26  2  0
 25 27  1  0
 24 28  1  0
 16 29  1  0
 12 30  1  0
  7  2  1  0
M  END
$$$$
