
     RDKit          3D

 28 31  0  0  0  0  0  0  0  0999 V2000
    0.1577    3.0424   18.0408 C   0  0  0  0  0  0  0  0  0  0  0  0
    0.9089    1.7639   17.9358 C   0  0  0  0  0  0  0  0  0  0  0  0
    1.4489    1.1751   16.8181 C   0  0  0  0  0  0  0  0  0  0  0  0
    2.0412    0.0090   17.2376 C   0  0  0  0  0  0  0  0  0  0  0  0
    1.8473   -0.0678   18.5503 N   0  0  0  0  0  0  0  0  0  0  0  0
    1.1689    0.9780   18.9871 N   0  0  0  0  0  0  0  0  0  0  0  0
    0.7718    1.2394   20.3508 C   0  0  0  0  0  0  0  0  0  0  0  0
   -0.4685    0.8511   20.8197 C   0  0  0  0  0  0  0  0  0  0  0  0
   -0.7907    1.1223   22.1113 C   0  0  0  0  0  0  0  0  0  0  0  0
    0.0770    1.7679   22.9591 C   0  0  0  0  0  0  0  0  0  0  0  0
    1.3101    2.1448   22.4640 C   0  0  0  0  0  0  0  0  0  0  0  0
    1.6863    1.8936   21.1617 C   0  0  0  0  0  0  0  0  0  0  0  0
    2.7678   -0.9860   16.3744 C   0  0  0  0  0  0  0  0  0  0  0  0
    1.4013    1.6912   15.4549 C   0  0  0  0  0  0  0  0  0  0  0  0
    2.3548    2.3739   14.9629 N   0  0  0  0  0  0  0  0  0  0  0  0
    2.4957    2.5117   13.5813 N   0  0  0  0  0  0  0  0  0  0  0  0
    1.6695    3.4900   12.8581 C   0  0  0  0  0  0  0  0  0  0  0  0
    1.2872    2.8027   11.5448 C   0  0  0  0  0  0  0  0  0  0  0  0
    2.4512    2.5919   10.7056 N   0  0  0  0  0  0  0  0  0  0  0  0
    3.6676    2.5492   11.5109 C   0  0  0  0  0  0  0  0  0  0  0  0
    3.4236    1.7389   12.7828 C   0  0  0  0  0  0  0  0  0  0  0  0
    2.4928    3.6427    9.7340 C   0  0  0  0  0  0  0  0  0  0  0  0
    1.3290    3.6532    8.8161 C   0  0  0  0  0  0  0  0  0  0  0  0
    1.1176    2.6406    7.9052 C   0  0  0  0  0  0  0  0  0  0  0  0
    0.0157    2.6587    7.0429 C   0  0  0  0  0  0  0  0  0  0  0  0
   -0.8944    3.6943    7.0798 C   0  0  0  0  0  0  0  0  0  0  0  0
   -0.6709    4.7008    7.9958 C   0  0  0  0  0  0  0  0  0  0  0  0
    0.4212    4.6910    8.8564 C   0  0  0  0  0  0  0  0  0  0  0  0
  1  2  1  0
  2  3  2  0
  3  4  1  0
  4  5  2  0
  5  6  1  0
  6  7  1  0
  7  8  2  0
  8  9  1  0
  9 10  2  0
 10 11  1  0
 11 12  2  0
  4 13  1  0
  3 14  1  0
 14 15  2  3
 15 16  1  0
 16 17  1  0
 17 18  1  0
 18 19  1  0
 19 20  1  0
 20 21  1  0
 19 22  1  0
 22 23  1  0
 23 24  2  0
 24 25  1  0
 25 26  2  0
 26 27  1  0
 27 28  2  0
  6  2  1  0
 12  7  1  0
 21 16  1  0
 28 23  1  0
M  END
$$$$
