
     RDKit          3D

 28 31  0  0  0  0  0  0  0  0999 V2000
    1.5744    3.1544   16.4385 C   0  0  0  0  0  0  0  0  0  0  0  0
    1.4984    1.7214   16.0507 C   0  0  0  0  0  0  0  0  0  0  0  0
    1.6414    1.1609   14.8044 C   0  0  0  0  0  0  0  0  0  0  0  0
    1.4868   -0.1945   14.9650 C   0  0  0  0  0  0  0  0  0  0  0  0
    1.2629   -0.4034   16.2583 N   0  0  0  0  0  0  0  0  0  0  0  0
    1.2664    0.7363   16.9260 N   0  0  0  0  0  0  0  0  0  0  0  0
    1.0586    0.9045   18.3453 C   0  0  0  0  0  0  0  0  0  0  0  0
   -0.0608    1.5529   18.8306 C   0  0  0  0  0  0  0  0  0  0  0  0
   -0.2062    1.6834   20.1749 C   0  0  0  0  0  0  0  0  0  0  0  0
    0.7229    1.1917   21.0600 C   0  0  0  0  0  0  0  0  0  0  0  0
    1.8321    0.5480   20.5474 C   0  0  0  0  0  0  0  0  0  0  0  0
    2.0276    0.3889   19.1920 C   0  0  0  0  0  0  0  0  0  0  0  0
    1.5579   -1.2371   13.8829 C   0  0  0  0  0  0  0  0  0  0  0  0
    1.9066    1.8698   13.5578 C   0  0  0  0  0  0  0  0  0  0  0  0
    0.9730    2.4029   12.8783 N   0  0  0  0  0  0  0  0  0  0  0  0
    1.1677    2.7381   11.5375 N   0  0  0  0  0  0  0  0  0  0  0  0
    2.2362    2.0815   10.7695 C   0  0  0  0  0  0  0  0  0  0  0  0
    2.8343    3.1814    9.8888 C   0  0  0  0  0  0  0  0  0  0  0  0
    1.8779    3.6377    8.8985 N   0  0  0  0  0  0  0  0  0  0  0  0
    0.5118    3.3777    9.3417 C   0  0  0  0  0  0  0  0  0  0  0  0
    0.3710    3.7146   10.8251 C   0  0  0  0  0  0  0  0  0  0  0  0
    2.1712    2.9774    7.6624 C   0  0  0  0  0  0  0  0  0  0  0  0
    1.3407    3.4418    6.5260 C   0  0  0  0  0  0  0  0  0  0  0  0
    1.4388    4.7266    6.0364 C   0  0  0  0  0  0  0  0  0  0  0  0
    0.6509    5.1560    4.9627 C   0  0  0  0  0  0  0  0  0  0  0  0
   -0.2502    4.3028    4.3609 C   0  0  0  0  0  0  0  0  0  0  0  0
   -0.3382    3.0204    4.8606 C   0  0  0  0  0  0  0  0  0  0  0  0
    0.4406    2.5851    5.9270 C   0  0  0  0  0  0  0  0  0  0  0  0
  1  2  1  0
  2  3  2  0
  3  4  1  0
  4  5  2  0
  5  6  1  0
  6  7  1  0
  7  8  2  0
  8  9  1  0
  9 10  2  0
 10 11  1  0
 11 12  2  0
  4 13  1  0
  3 14  1  0
 14 15  2  3
 15 16  1  0
 16 17  1  0
 17 18  1  0
 18 19  1  0
 19 20  1  0
 20 21  1  0
 19 22  1  0
 22 23  1  0
 23 24  2  0
 24 25  1  0
 25 26  2  0
 26 27  1  0
 27 28  2  0
  6  2  1  0
 12  7  1  0
 21 16  1  0
 28 23  1  0
M  END
$$$$
