
     RDKit          3D

 28 31  0  0  0  0  0  0  0  0999 V2000
    3.2841    2.5807    8.6665 C   0  0  0  0  0  0  0  0  0  0  0  0
    1.9048    2.6903    9.2096 C   0  0  0  0  0  0  0  0  0  0  0  0
    1.4242    2.2639   10.4241 C   0  0  0  0  0  0  0  0  0  0  0  0
    0.0912    2.5941   10.4552 C   0  0  0  0  0  0  0  0  0  0  0  0
   -0.1825    3.1891    9.2987 N   0  0  0  0  0  0  0  0  0  0  0  0
    0.8951    3.2558    8.5378 N   0  0  0  0  0  0  0  0  0  0  0  0
    0.9830    3.8320    7.2164 C   0  0  0  0  0  0  0  0  0  0  0  0
    0.6422    5.1516    6.9894 C   0  0  0  0  0  0  0  0  0  0  0  0
    0.7434    5.6425    5.7268 C   0  0  0  0  0  0  0  0  0  0  0  0
    1.1724    4.8682    4.6757 C   0  0  0  0  0  0  0  0  0  0  0  0
    1.5066    3.5526    4.9311 C   0  0  0  0  0  0  0  0  0  0  0  0
    1.4218    3.0055    6.1936 C   0  0  0  0  0  0  0  0  0  0  0  0
   -0.8692    2.3310   11.5828 C   0  0  0  0  0  0  0  0  0  0  0  0
    2.1842    1.5932   11.4726 C   0  0  0  0  0  0  0  0  0  0  0  0
    2.9228    2.2385   12.2823 N   0  0  0  0  0  0  0  0  0  0  0  0
    2.5145    2.4623   13.5980 N   0  0  0  0  0  0  0  0  0  0  0  0
    2.8341    1.4737   14.6387 C   0  0  0  0  0  0  0  0  0  0  0  0
    1.5912    1.4101   15.5301 C   0  0  0  0  0  0  0  0  0  0  0  0
    1.3907    2.6594   16.2393 N   0  0  0  0  0  0  0  0  0  0  0  0
    2.0261    3.7645   15.5285 C   0  0  0  0  0  0  0  0  0  0  0  0
    1.7769    3.6317   14.0271 C   0  0  0  0  0  0  0  0  0  0  0  0
    1.9150    2.5062   17.5627 C   0  0  0  0  0  0  0  0  0  0  0  0
    1.2435    1.4461   18.3516 C   0  0  0  0  0  0  0  0  0  0  0  0
   -0.0491    1.5929   18.8071 C   0  0  0  0  0  0  0  0  0  0  0  0
   -0.6750    0.5864   19.5507 C   0  0  0  0  0  0  0  0  0  0  0  0
   -0.0141   -0.5863   19.8507 C   0  0  0  0  0  0  0  0  0  0  0  0
    1.2786   -0.7201   19.3889 C   0  0  0  0  0  0  0  0  0  0  0  0
    1.9084    0.2747   18.6494 C   0  0  0  0  0  0  0  0  0  0  0  0
  1  2  1  0
  2  3  2  0
  3  4  1  0
  4  5  2  0
  5  6  1  0
  6  7  1  0
  7  8  2  0
  8  9  1  0
  9 10  2  0
 10 11  1  0
 11 12  2  0
  4 13  1  0
  3 14  1  0
 14 15  2  3
 15 16  1  0
 16 17  1  0
 17 18  1  0
 18 19  1  0
 19 20  1  0
 20 21  1  0
 19 22  1  0
 22 23  1  0
 23 24  2  0
 24 25  1  0
 25 26  2  0
 26 27  1  0
 27 28  2  0
  6  2  1  0
 12  7  1  0
 21 16  1  0
 28 23  1  0
M  END
$$$$
