
     RDKit          3D

 28 31  0  0  0  0  0  0  0  0999 V2000
    2.9691    2.4998    9.1630 C   0  0  0  0  0  0  0  0  0  0  0  0
    1.5241    2.7306    9.4246 C   0  0  0  0  0  0  0  0  0  0  0  0
    0.8050    2.4639   10.5646 C   0  0  0  0  0  0  0  0  0  0  0  0
   -0.4874    2.8546   10.3123 C   0  0  0  0  0  0  0  0  0  0  0  0
   -0.5083    3.3288    9.0708 N   0  0  0  0  0  0  0  0  0  0  0  0
    0.6914    3.2621    8.5220 N   0  0  0  0  0  0  0  0  0  0  0  0
    1.0541    3.6832    7.1890 C   0  0  0  0  0  0  0  0  0  0  0  0
    1.5282    2.7779    6.2591 C   0  0  0  0  0  0  0  0  0  0  0  0
    1.8548    3.2281    5.0197 C   0  0  0  0  0  0  0  0  0  0  0  0
    1.7276    4.5502    4.6672 C   0  0  0  0  0  0  0  0  0  0  0  0
    1.2512    5.4332    5.6164 C   0  0  0  0  0  0  0  0  0  0  0  0
    0.9057    5.0282    6.8880 C   0  0  0  0  0  0  0  0  0  0  0  0
   -1.6512    2.7618   11.2610 C   0  0  0  0  0  0  0  0  0  0  0  0
    1.3178    1.8810   11.7991 C   0  0  0  0  0  0  0  0  0  0  0  0
    1.7603    2.6029   12.7480 N   0  0  0  0  0  0  0  0  0  0  0  0
    1.6784    2.1703   14.0724 N   0  0  0  0  0  0  0  0  0  0  0  0
    0.9748    0.9182   14.3882 C   0  0  0  0  0  0  0  0  0  0  0  0
    0.2200    1.1969   15.6905 C   0  0  0  0  0  0  0  0  0  0  0  0
    1.1382    1.4072   16.7934 N   0  0  0  0  0  0  0  0  0  0  0  0
    2.4387    1.8543   16.3047 C   0  0  0  0  0  0  0  0  0  0  0  0
    2.2525    2.8852   15.1927 C   0  0  0  0  0  0  0  0  0  0  0  0
    1.2378    0.1814   17.5265 C   0  0  0  0  0  0  0  0  0  0  0  0
    1.7877    0.3463   18.8930 C   0  0  0  0  0  0  0  0  0  0  0  0
    3.0153   -0.1720   19.2456 C   0  0  0  0  0  0  0  0  0  0  0  0
    3.5267   -0.0108   20.5382 C   0  0  0  0  0  0  0  0  0  0  0  0
    2.8145    0.6739   21.5003 C   0  0  0  0  0  0  0  0  0  0  0  0
    1.5878    1.1872   21.1341 C   0  0  0  0  0  0  0  0  0  0  0  0
    1.0719    1.0319   19.8523 C   0  0  0  0  0  0  0  0  0  0  0  0
  1  2  1  0
  2  3  2  0
  3  4  1  0
  4  5  2  0
  5  6  1  0
  6  7  1  0
  7  8  2  0
  8  9  1  0
  9 10  2  0
 10 11  1  0
 11 12  2  0
  4 13  1  0
  3 14  1  0
 14 15  2  3
 15 16  1  0
 16 17  1  0
 17 18  1  0
 18 19  1  0
 19 20  1  0
 20 21  1  0
 19 22  1  0
 22 23  1  0
 23 24  2  0
 24 25  1  0
 25 26  2  0
 26 27  1  0
 27 28  2  0
  6  2  1  0
 12  7  1  0
 21 16  1  0
 28 23  1  0
M  END
$$$$
