
     RDKit          3D

 28 31  0  0  0  0  0  0  0  0999 V2000
    2.1511    0.4506   16.5908 C   0  0  0  0  0  0  0  0  0  0  0  0
    1.9392    1.8018   17.1731 C   0  0  0  0  0  0  0  0  0  0  0  0
    2.1322    3.0291   16.5865 C   0  0  0  0  0  0  0  0  0  0  0  0
    1.7984    3.9703   17.5295 C   0  0  0  0  0  0  0  0  0  0  0  0
    1.4270    3.3055   18.6188 N   0  0  0  0  0  0  0  0  0  0  0  0
    1.5052    2.0015   18.4230 N   0  0  0  0  0  0  0  0  0  0  0  0
    1.1837    0.9659   19.3769 C   0  0  0  0  0  0  0  0  0  0  0  0
    2.1358    0.0520   19.7858 C   0  0  0  0  0  0  0  0  0  0  0  0
    1.7793   -0.9017   20.6852 C   0  0  0  0  0  0  0  0  0  0  0  0
    0.5063   -0.9824   21.1964 C   0  0  0  0  0  0  0  0  0  0  0  0
   -0.4254   -0.0560   20.7703 C   0  0  0  0  0  0  0  0  0  0  0  0
   -0.1153    0.9315   19.8597 C   0  0  0  0  0  0  0  0  0  0  0  0
    1.8458    5.4641   17.3579 C   0  0  0  0  0  0  0  0  0  0  0  0
    2.5992    3.2791   15.2277 C   0  0  0  0  0  0  0  0  0  0  0  0
    1.8288    3.7441   14.3290 N   0  0  0  0  0  0  0  0  0  0  0  0
    1.6635    3.0763   13.1147 N   0  0  0  0  0  0  0  0  0  0  0  0
    0.4102    3.2328   12.3613 C   0  0  0  0  0  0  0  0  0  0  0  0
    0.1040    1.8441   11.7947 C   0  0  0  0  0  0  0  0  0  0  0  0
    1.0940    1.4498   10.8107 N   0  0  0  0  0  0  0  0  0  0  0  0
    2.3508    2.1587   11.0299 C   0  0  0  0  0  0  0  0  0  0  0  0
    2.6653    2.2144   12.5238 C   0  0  0  0  0  0  0  0  0  0  0  0
    0.5548    1.7119    9.5106 C   0  0  0  0  0  0  0  0  0  0  0  0
   -0.7255    1.0143    9.2438 C   0  0  0  0  0  0  0  0  0  0  0  0
   -1.3693    1.1239    8.0299 C   0  0  0  0  0  0  0  0  0  0  0  0
   -2.5775    0.4611    7.7870 C   0  0  0  0  0  0  0  0  0  0  0  0
   -3.1614   -0.3241    8.7589 C   0  0  0  0  0  0  0  0  0  0  0  0
   -2.5068   -0.4251    9.9686 C   0  0  0  0  0  0  0  0  0  0  0  0
   -1.3060    0.2299   10.2187 C   0  0  0  0  0  0  0  0  0  0  0  0
  1  2  1  0
  2  3  2  0
  3  4  1  0
  4  5  2  0
  5  6  1  0
  6  7  1  0
  7  8  2  0
  8  9  1  0
  9 10  2  0
 10 11  1  0
 11 12  2  0
  4 13  1  0
  3 14  1  0
 14 15  2  3
 15 16  1  0
 16 17  1  0
 17 18  1  0
 18 19  1  0
 19 20  1  0
 20 21  1  0
 19 22  1  0
 22 23  1  0
 23 24  2  0
 24 25  1  0
 25 26  2  0
 26 27  1  0
 27 28  2  0
  6  2  1  0
 12  7  1  0
 21 16  1  0
 28 23  1  0
M  END
$$$$
