
     RDKit          3D

 28 31  0  0  0  0  0  0  0  0999 V2000
   -0.6676    3.2619    7.1313 C   0  0  0  0  0  0  0  0  0  0  0  0
    0.7789    3.2135    7.4705 C   0  0  0  0  0  0  0  0  0  0  0  0
    1.3801    2.7004    8.5943 C   0  0  0  0  0  0  0  0  0  0  0  0
    2.7312    2.8923    8.4374 C   0  0  0  0  0  0  0  0  0  0  0  0
    2.8983    3.4946    7.2644 N   0  0  0  0  0  0  0  0  0  0  0  0
    1.7362    3.6955    6.6695 N   0  0  0  0  0  0  0  0  0  0  0  0
    1.5219    4.3214    5.3857 C   0  0  0  0  0  0  0  0  0  0  0  0
    0.4245    5.1301    5.1605 C   0  0  0  0  0  0  0  0  0  0  0  0
    0.2715    5.6937    3.9340 C   0  0  0  0  0  0  0  0  0  0  0  0
    1.1720    5.4835    2.9174 C   0  0  0  0  0  0  0  0  0  0  0  0
    2.2598    4.6708    3.1702 C   0  0  0  0  0  0  0  0  0  0  0  0
    2.4617    4.0748    4.3969 C   0  0  0  0  0  0  0  0  0  0  0  0
    3.8096    2.4958    9.4085 C   0  0  0  0  0  0  0  0  0  0  0  0
    0.7112    2.0743    9.7289 C   0  0  0  0  0  0  0  0  0  0  0  0
    0.6921    2.6173   10.8788 N   0  0  0  0  0  0  0  0  0  0  0  0
    0.8918    1.8560   12.0314 N   0  0  0  0  0  0  0  0  0  0  0  0
    0.3379    2.3157   13.3138 C   0  0  0  0  0  0  0  0  0  0  0  0
    1.4093    1.9874   14.3568 C   0  0  0  0  0  0  0  0  0  0  0  0
    1.5748    0.5541   14.5046 N   0  0  0  0  0  0  0  0  0  0  0  0
    1.1425   -0.1429   13.2973 C   0  0  0  0  0  0  0  0  0  0  0  0
    1.6266    0.6090   12.0586 C   0  0  0  0  0  0  0  0  0  0  0  0
    0.8299    0.1386   15.6545 C   0  0  0  0  0  0  0  0  0  0  0  0
    1.2213    0.8355   16.9028 C   0  0  0  0  0  0  0  0  0  0  0  0
    2.3155    0.4375   17.6404 C   0  0  0  0  0  0  0  0  0  0  0  0
    2.6777    1.1019   18.8174 C   0  0  0  0  0  0  0  0  0  0  0  0
    1.9475    2.1785   19.2753 C   0  0  0  0  0  0  0  0  0  0  0  0
    0.8552    2.5662   18.5278 C   0  0  0  0  0  0  0  0  0  0  0  0
    0.4880    1.9119   17.3572 C   0  0  0  0  0  0  0  0  0  0  0  0
  1  2  1  0
  2  3  2  0
  3  4  1  0
  4  5  2  0
  5  6  1  0
  6  7  1  0
  7  8  2  0
  8  9  1  0
  9 10  2  0
 10 11  1  0
 11 12  2  0
  4 13  1  0
  3 14  1  0
 14 15  2  3
 15 16  1  0
 16 17  1  0
 17 18  1  0
 18 19  1  0
 19 20  1  0
 20 21  1  0
 19 22  1  0
 22 23  1  0
 23 24  2  0
 24 25  1  0
 25 26  2  0
 26 27  1  0
 27 28  2  0
  6  2  1  0
 12  7  1  0
 21 16  1  0
 28 23  1  0
M  END
$$$$
