
     RDKit          3D

 28 31  0  0  0  0  0  0  0  0999 V2000
    3.1730    1.7913    8.2894 C   0  0  0  0  0  0  0  0  0  0  0  0
    1.9626    2.4566    8.8388 C   0  0  0  0  0  0  0  0  0  0  0  0
    1.4057    2.3290   10.0884 C   0  0  0  0  0  0  0  0  0  0  0  0
    0.3013    3.1454   10.1097 C   0  0  0  0  0  0  0  0  0  0  0  0
    0.2278    3.7208    8.9139 N   0  0  0  0  0  0  0  0  0  0  0  0
    1.2177    3.3188    8.1372 N   0  0  0  0  0  0  0  0  0  0  0  0
    1.4644    3.7275    6.7742 C   0  0  0  0  0  0  0  0  0  0  0  0
    0.7165    3.2180    5.7301 C   0  0  0  0  0  0  0  0  0  0  0  0
    0.9910    3.6367    4.4673 C   0  0  0  0  0  0  0  0  0  0  0  0
    1.9854    4.5470    4.2009 C   0  0  0  0  0  0  0  0  0  0  0  0
    2.7172    5.0400    5.2634 C   0  0  0  0  0  0  0  0  0  0  0  0
    2.4793    4.6480    6.5635 C   0  0  0  0  0  0  0  0  0  0  0  0
   -0.6403    3.3461   11.2657 C   0  0  0  0  0  0  0  0  0  0  0  0
    1.8953    1.4906   11.1766 C   0  0  0  0  0  0  0  0  0  0  0  0
    1.1782    0.5758   11.6927 N   0  0  0  0  0  0  0  0  0  0  0  0
    1.0534    0.4625   13.0781 N   0  0  0  0  0  0  0  0  0  0  0  0
    2.0736    1.0592   13.9533 C   0  0  0  0  0  0  0  0  0  0  0  0
    2.2672    0.0535   15.0910 C   0  0  0  0  0  0  0  0  0  0  0  0
    1.0741   -0.0476   15.9096 N   0  0  0  0  0  0  0  0  0  0  0  0
   -0.1073    0.3530   15.1522 C   0  0  0  0  0  0  0  0  0  0  0  0
   -0.0398   -0.2199   13.7376 C   0  0  0  0  0  0  0  0  0  0  0  0
    1.2636    0.7681   17.0710 C   0  0  0  0  0  0  0  0  0  0  0  0
    2.3150    0.2664   17.9874 C   0  0  0  0  0  0  0  0  0  0  0  0
    2.4897   -1.0812   18.2186 C   0  0  0  0  0  0  0  0  0  0  0  0
    3.4855   -1.5455   19.0852 C   0  0  0  0  0  0  0  0  0  0  0  0
    4.3241   -0.6649   19.7356 C   0  0  0  0  0  0  0  0  0  0  0  0
    4.1384    0.6805   19.4953 C   0  0  0  0  0  0  0  0  0  0  0  0
    3.1517    1.1508   18.6360 C   0  0  0  0  0  0  0  0  0  0  0  0
  1  2  1  0
  2  3  2  0
  3  4  1  0
  4  5  2  0
  5  6  1  0
  6  7  1  0
  7  8  2  0
  8  9  1  0
  9 10  2  0
 10 11  1  0
 11 12  2  0
  4 13  1  0
  3 14  1  0
 14 15  2  3
 15 16  1  0
 16 17  1  0
 17 18  1  0
 18 19  1  0
 19 20  1  0
 20 21  1  0
 19 22  1  0
 22 23  1  0
 23 24  2  0
 24 25  1  0
 25 26  2  0
 26 27  1  0
 27 28  2  0
  6  2  1  0
 12  7  1  0
 21 16  1  0
 28 23  1  0
M  END
$$$$
