
     RDKit          3D

 28 31  0  0  0  0  0  0  0  0999 V2000
    3.3191    1.4649   15.2290 C   0  0  0  0  0  0  0  0  0  0  0  0
    1.8506    1.2663   15.3470 C   0  0  0  0  0  0  0  0  0  0  0  0
    0.8578    1.6747   14.4896 C   0  0  0  0  0  0  0  0  0  0  0  0
   -0.3295    1.2523   15.0363 C   0  0  0  0  0  0  0  0  0  0  0  0
   -0.0273    0.6236   16.1677 N   0  0  0  0  0  0  0  0  0  0  0  0
    1.2779    0.6222   16.3705 N   0  0  0  0  0  0  0  0  0  0  0  0
    1.9755    0.0354   17.4907 C   0  0  0  0  0  0  0  0  0  0  0  0
    2.0698    0.6984   18.6992 C   0  0  0  0  0  0  0  0  0  0  0  0
    2.7378    0.1003   19.7198 C   0  0  0  0  0  0  0  0  0  0  0  0
    3.3186   -1.1377   19.5846 C   0  0  0  0  0  0  0  0  0  0  0  0
    3.2090   -1.7778   18.3657 C   0  0  0  0  0  0  0  0  0  0  0  0
    2.5422   -1.2151   17.2983 C   0  0  0  0  0  0  0  0  0  0  0  0
   -1.7037    1.4629   14.4617 C   0  0  0  0  0  0  0  0  0  0  0  0
    1.0342    2.4114   13.2434 C   0  0  0  0  0  0  0  0  0  0  0  0
    0.5910    1.9708   12.1358 N   0  0  0  0  0  0  0  0  0  0  0  0
    1.1832    2.3470   10.9293 N   0  0  0  0  0  0  0  0  0  0  0  0
    0.5108    3.3249   10.0608 C   0  0  0  0  0  0  0  0  0  0  0  0
    0.7372    2.8198    8.6336 C   0  0  0  0  0  0  0  0  0  0  0  0
    2.1398    2.8877    8.2702 N   0  0  0  0  0  0  0  0  0  0  0  0
    2.9836    2.8592    9.4607 C   0  0  0  0  0  0  0  0  0  0  0  0
    2.4493    1.8298   10.4550 C   0  0  0  0  0  0  0  0  0  0  0  0
    2.3412    4.0799    7.5034 C   0  0  0  0  0  0  0  0  0  0  0  0
    1.5102    4.1488    6.2780 C   0  0  0  0  0  0  0  0  0  0  0  0
    1.4704    3.1106    5.3722 C   0  0  0  0  0  0  0  0  0  0  0  0
    0.6824    3.1845    4.2182 C   0  0  0  0  0  0  0  0  0  0  0  0
   -0.0801    4.3026    3.9527 C   0  0  0  0  0  0  0  0  0  0  0  0
   -0.0309    5.3338    4.8672 C   0  0  0  0  0  0  0  0  0  0  0  0
    0.7491    5.2691    6.0164 C   0  0  0  0  0  0  0  0  0  0  0  0
  1  2  1  0
  2  3  2  0
  3  4  1  0
  4  5  2  0
  5  6  1  0
  6  7  1  0
  7  8  2  0
  8  9  1  0
  9 10  2  0
 10 11  1  0
 11 12  2  0
  4 13  1  0
  3 14  1  0
 14 15  2  3
 15 16  1  0
 16 17  1  0
 17 18  1  0
 18 19  1  0
 19 20  1  0
 20 21  1  0
 19 22  1  0
 22 23  1  0
 23 24  2  0
 24 25  1  0
 25 26  2  0
 26 27  1  0
 27 28  2  0
  6  2  1  0
 12  7  1  0
 21 16  1  0
 28 23  1  0
M  END
$$$$
