
     RDKit          3D

 28 31  0  0  0  0  0  0  0  0999 V2000
    3.1019   -0.2067   14.5332 C   0  0  0  0  0  0  0  0  0  0  0  0
    1.8681   -0.0411   15.3455 C   0  0  0  0  0  0  0  0  0  0  0  0
    0.5774    0.1528   14.9161 C   0  0  0  0  0  0  0  0  0  0  0  0
   -0.2003    0.2468   16.0444 C   0  0  0  0  0  0  0  0  0  0  0  0
    0.6163    0.1114   17.0843 N   0  0  0  0  0  0  0  0  0  0  0  0
    1.8629   -0.0624   16.6834 N   0  0  0  0  0  0  0  0  0  0  0  0
    3.0218   -0.2440   17.5259 C   0  0  0  0  0  0  0  0  0  0  0  0
    3.3878    0.7138   18.4519 C   0  0  0  0  0  0  0  0  0  0  0  0
    4.4871    0.4920   19.2185 C   0  0  0  0  0  0  0  0  0  0  0  0
    5.2405   -0.6511   19.0995 C   0  0  0  0  0  0  0  0  0  0  0  0
    4.8518   -1.5917   18.1659 C   0  0  0  0  0  0  0  0  0  0  0  0
    3.7448   -1.4156   17.3633 C   0  0  0  0  0  0  0  0  0  0  0  0
   -1.6886    0.4616   16.0894 C   0  0  0  0  0  0  0  0  0  0  0  0
    0.1258    0.2401   13.5322 C   0  0  0  0  0  0  0  0  0  0  0  0
   -0.6832    1.1427   13.1468 N   0  0  0  0  0  0  0  0  0  0  0  0
   -0.3185    2.0509   12.1518 N   0  0  0  0  0  0  0  0  0  0  0  0
   -0.5226    1.7037   10.7374 C   0  0  0  0  0  0  0  0  0  0  0  0
    0.7100    2.2436   10.0076 C   0  0  0  0  0  0  0  0  0  0  0  0
    0.7468    3.6931   10.0432 N   0  0  0  0  0  0  0  0  0  0  0  0
   -0.0141    4.2013   11.1802 C   0  0  0  0  0  0  0  0  0  0  0  0
    0.2639    3.3494   12.4174 C   0  0  0  0  0  0  0  0  0  0  0  0
    0.2330    4.1797    8.7986 C   0  0  0  0  0  0  0  0  0  0  0  0
    1.0401    3.7782    7.6219 C   0  0  0  0  0  0  0  0  0  0  0  0
    2.3020    4.2877    7.4030 C   0  0  0  0  0  0  0  0  0  0  0  0
    3.0568    3.9024    6.2895 C   0  0  0  0  0  0  0  0  0  0  0  0
    2.5581    2.9982    5.3753 C   0  0  0  0  0  0  0  0  0  0  0  0
    1.2944    2.4964    5.6065 C   0  0  0  0  0  0  0  0  0  0  0  0
    0.5373    2.8735    6.7101 C   0  0  0  0  0  0  0  0  0  0  0  0
  1  2  1  0
  2  3  2  0
  3  4  1  0
  4  5  2  0
  5  6  1  0
  6  7  1  0
  7  8  2  0
  8  9  1  0
  9 10  2  0
 10 11  1  0
 11 12  2  0
  4 13  1  0
  3 14  1  0
 14 15  2  3
 15 16  1  0
 16 17  1  0
 17 18  1  0
 18 19  1  0
 19 20  1  0
 20 21  1  0
 19 22  1  0
 22 23  1  0
 23 24  2  0
 24 25  1  0
 25 26  2  0
 26 27  1  0
 27 28  2  0
  6  2  1  0
 12  7  1  0
 21 16  1  0
 28 23  1  0
M  END
$$$$
