
     RDKit          3D

 28 31  0  0  0  0  0  0  0  0999 V2000
    2.5878    2.1983    6.8901 C   0  0  0  0  0  0  0  0  0  0  0  0
    1.9373    3.2095    7.7642 C   0  0  0  0  0  0  0  0  0  0  0  0
    1.7549    3.1769    9.1256 C   0  0  0  0  0  0  0  0  0  0  0  0
    1.1054    4.3398    9.4612 C   0  0  0  0  0  0  0  0  0  0  0  0
    0.9219    5.0152    8.3313 N   0  0  0  0  0  0  0  0  0  0  0  0
    1.4154    4.3514    7.3014 N   0  0  0  0  0  0  0  0  0  0  0  0
    1.4013    4.7700    5.9193 C   0  0  0  0  0  0  0  0  0  0  0  0
    0.8942    3.9492    4.9303 C   0  0  0  0  0  0  0  0  0  0  0  0
    0.9056    4.3928    3.6464 C   0  0  0  0  0  0  0  0  0  0  0  0
    1.4042    5.6272    3.3058 C   0  0  0  0  0  0  0  0  0  0  0  0
    1.9048    6.4271    4.3145 C   0  0  0  0  0  0  0  0  0  0  0  0
    1.9167    6.0247    5.6330 C   0  0  0  0  0  0  0  0  0  0  0  0
    0.6849    4.7628   10.8423 C   0  0  0  0  0  0  0  0  0  0  0  0
    2.1719    2.1143   10.0332 C   0  0  0  0  0  0  0  0  0  0  0  0
    1.3868    1.1709   10.3663 N   0  0  0  0  0  0  0  0  0  0  0  0
    1.1051    0.9170   11.7095 N   0  0  0  0  0  0  0  0  0  0  0  0
    1.1560   -0.4624   12.2170 C   0  0  0  0  0  0  0  0  0  0  0  0
   -0.0213   -0.5784   13.1885 C   0  0  0  0  0  0  0  0  0  0  0  0
    0.1753    0.2640   14.3528 N   0  0  0  0  0  0  0  0  0  0  0  0
    1.0821    1.3657   14.0459 C   0  0  0  0  0  0  0  0  0  0  0  0
    0.7559    1.9427   12.6695 C   0  0  0  0  0  0  0  0  0  0  0  0
    0.6752   -0.5570   15.4139 C   0  0  0  0  0  0  0  0  0  0  0  0
   -0.2733   -1.6082   15.8525 C   0  0  0  0  0  0  0  0  0  0  0  0
   -1.6241   -1.5166   15.5942 C   0  0  0  0  0  0  0  0  0  0  0  0
   -2.5119   -2.5144   16.0117 C   0  0  0  0  0  0  0  0  0  0  0  0
   -2.0593   -3.6226   16.6965 C   0  0  0  0  0  0  0  0  0  0  0  0
   -0.7056   -3.7016   16.9484 C   0  0  0  0  0  0  0  0  0  0  0  0
    0.1838   -2.7150   16.5373 C   0  0  0  0  0  0  0  0  0  0  0  0
  1  2  1  0
  2  3  2  0
  3  4  1  0
  4  5  2  0
  5  6  1  0
  6  7  1  0
  7  8  2  0
  8  9  1  0
  9 10  2  0
 10 11  1  0
 11 12  2  0
  4 13  1  0
  3 14  1  0
 14 15  2  3
 15 16  1  0
 16 17  1  0
 17 18  1  0
 18 19  1  0
 19 20  1  0
 20 21  1  0
 19 22  1  0
 22 23  1  0
 23 24  2  0
 24 25  1  0
 25 26  2  0
 26 27  1  0
 27 28  2  0
  6  2  1  0
 12  7  1  0
 21 16  1  0
 28 23  1  0
M  END
$$$$
