
     RDKit          3D

 28 31  0  0  0  0  0  0  0  0999 V2000
    1.4981    0.0756   15.7241 C   0  0  0  0  0  0  0  0  0  0  0  0
    1.8192    1.4136   16.2865 C   0  0  0  0  0  0  0  0  0  0  0  0
    2.4815    2.4590   15.6897 C   0  0  0  0  0  0  0  0  0  0  0  0
    2.5263    3.4731   16.6150 C   0  0  0  0  0  0  0  0  0  0  0  0
    1.9110    3.0244   17.7043 N   0  0  0  0  0  0  0  0  0  0  0  0
    1.4796    1.7888   17.5252 N   0  0  0  0  0  0  0  0  0  0  0  0
    0.7683    0.9766   18.4844 C   0  0  0  0  0  0  0  0  0  0  0  0
   -0.5640    1.2089   18.7674 C   0  0  0  0  0  0  0  0  0  0  0  0
   -1.1844    0.4147   19.6783 C   0  0  0  0  0  0  0  0  0  0  0  0
   -0.5282   -0.6067   20.3221 C   0  0  0  0  0  0  0  0  0  0  0  0
    0.8031   -0.8165   20.0201 C   0  0  0  0  0  0  0  0  0  0  0  0
    1.4793   -0.0396   19.1038 C   0  0  0  0  0  0  0  0  0  0  0  0
    3.1520    4.8282   16.4272 C   0  0  0  0  0  0  0  0  0  0  0  0
    3.0276    2.4834   14.3376 C   0  0  0  0  0  0  0  0  0  0  0  0
    2.7921    3.4430   13.5369 N   0  0  0  0  0  0  0  0  0  0  0  0
    2.0913    3.2265   12.3495 N   0  0  0  0  0  0  0  0  0  0  0  0
    2.8287    3.0539   11.0888 C   0  0  0  0  0  0  0  0  0  0  0  0
    2.0064    3.8000   10.0351 C   0  0  0  0  0  0  0  0  0  0  0  0
    0.7247    3.1565    9.8186 N   0  0  0  0  0  0  0  0  0  0  0  0
    0.3338    2.3772   10.9890 C   0  0  0  0  0  0  0  0  0  0  0  0
    0.6478    3.1573   12.2645 C   0  0  0  0  0  0  0  0  0  0  0  0
    0.8314    2.3403    8.6471 C   0  0  0  0  0  0  0  0  0  0  0  0
   -0.4718    2.0422    8.0068 C   0  0  0  0  0  0  0  0  0  0  0  0
   -1.3340    1.1006    8.5264 C   0  0  0  0  0  0  0  0  0  0  0  0
   -2.5625    0.8263    7.9152 C   0  0  0  0  0  0  0  0  0  0  0  0
   -2.9478    1.4927    6.7709 C   0  0  0  0  0  0  0  0  0  0  0  0
   -2.0758    2.4321    6.2618 C   0  0  0  0  0  0  0  0  0  0  0  0
   -0.8531    2.7111    6.8623 C   0  0  0  0  0  0  0  0  0  0  0  0
  1  2  1  0
  2  3  2  0
  3  4  1  0
  4  5  2  0
  5  6  1  0
  6  7  1  0
  7  8  2  0
  8  9  1  0
  9 10  2  0
 10 11  1  0
 11 12  2  0
  4 13  1  0
  3 14  1  0
 14 15  2  3
 15 16  1  0
 16 17  1  0
 17 18  1  0
 18 19  1  0
 19 20  1  0
 20 21  1  0
 19 22  1  0
 22 23  1  0
 23 24  2  0
 24 25  1  0
 25 26  2  0
 26 27  1  0
 27 28  2  0
  6  2  1  0
 12  7  1  0
 21 16  1  0
 28 23  1  0
M  END
$$$$
