
     RDKit          3D

 28 31  0  0  0  0  0  0  0  0999 V2000
   -0.2023    1.8567   17.0043 C   0  0  0  0  0  0  0  0  0  0  0  0
    1.0130    1.0217   17.1926 C   0  0  0  0  0  0  0  0  0  0  0  0
    1.8050    0.4312   16.2377 C   0  0  0  0  0  0  0  0  0  0  0  0
    2.8022   -0.2311   16.9113 C   0  0  0  0  0  0  0  0  0  0  0  0
    2.5890   -0.0271   18.2073 N   0  0  0  0  0  0  0  0  0  0  0  0
    1.5184    0.7234   18.3951 N   0  0  0  0  0  0  0  0  0  0  0  0
    0.9785    1.1526   19.6640 C   0  0  0  0  0  0  0  0  0  0  0  0
    1.7953    1.6825   20.6444 C   0  0  0  0  0  0  0  0  0  0  0  0
    1.2349    2.0702   21.8196 C   0  0  0  0  0  0  0  0  0  0  0  0
   -0.1130    1.9508   22.0591 C   0  0  0  0  0  0  0  0  0  0  0  0
   -0.9059    1.4178   21.0617 C   0  0  0  0  0  0  0  0  0  0  0  0
   -0.3875    1.0091   19.8514 C   0  0  0  0  0  0  0  0  0  0  0  0
    3.9179   -1.0313   16.2966 C   0  0  0  0  0  0  0  0  0  0  0  0
    1.6201    0.4979   14.7926 C   0  0  0  0  0  0  0  0  0  0  0  0
    2.0410    1.4835   14.1078 N   0  0  0  0  0  0  0  0  0  0  0  0
    1.3672    1.8923   12.9559 N   0  0  0  0  0  0  0  0  0  0  0  0
    1.9678    1.6506   11.6355 C   0  0  0  0  0  0  0  0  0  0  0  0
    1.6582    2.9057   10.8157 C   0  0  0  0  0  0  0  0  0  0  0  0
    0.2344    3.0328   10.5697 N   0  0  0  0  0  0  0  0  0  0  0  0
   -0.5311    2.3180   11.5862 C   0  0  0  0  0  0  0  0  0  0  0  0
    0.0812    2.5570   12.9652 C   0  0  0  0  0  0  0  0  0  0  0  0
   -0.0337    2.5357    9.2540 C   0  0  0  0  0  0  0  0  0  0  0  0
    0.5652    3.3545    8.1733 C   0  0  0  0  0  0  0  0  0  0  0  0
    0.1020    4.6201    7.8839 C   0  0  0  0  0  0  0  0  0  0  0  0
    0.6740    5.3860    6.8620 C   0  0  0  0  0  0  0  0  0  0  0  0
    1.7218    4.8948    6.1119 C   0  0  0  0  0  0  0  0  0  0  0  0
    2.1754    3.6274    6.4119 C   0  0  0  0  0  0  0  0  0  0  0  0
    1.6131    2.8593    7.4254 C   0  0  0  0  0  0  0  0  0  0  0  0
  1  2  1  0
  2  3  2  0
  3  4  1  0
  4  5  2  0
  5  6  1  0
  6  7  1  0
  7  8  2  0
  8  9  1  0
  9 10  2  0
 10 11  1  0
 11 12  2  0
  4 13  1  0
  3 14  1  0
 14 15  2  3
 15 16  1  0
 16 17  1  0
 17 18  1  0
 18 19  1  0
 19 20  1  0
 20 21  1  0
 19 22  1  0
 22 23  1  0
 23 24  2  0
 24 25  1  0
 25 26  2  0
 26 27  1  0
 27 28  2  0
  6  2  1  0
 12  7  1  0
 21 16  1  0
 28 23  1  0
M  END
$$$$
