
     RDKit          3D

 28 31  0  0  0  0  0  0  0  0999 V2000
    3.0535    1.4875   16.3036 C   0  0  0  0  0  0  0  0  0  0  0  0
    1.7014    1.7136   15.7288 C   0  0  0  0  0  0  0  0  0  0  0  0
    1.3560    1.9757   14.4250 C   0  0  0  0  0  0  0  0  0  0  0  0
   -0.0112    2.1055   14.4010 C   0  0  0  0  0  0  0  0  0  0  0  0
   -0.4346    1.9239   15.6477 N   0  0  0  0  0  0  0  0  0  0  0  0
    0.5805    1.6873   16.4591 N   0  0  0  0  0  0  0  0  0  0  0  0
    0.5088    1.4427   17.8806 C   0  0  0  0  0  0  0  0  0  0  0  0
    0.0505    2.4142   18.7495 C   0  0  0  0  0  0  0  0  0  0  0  0
    0.0040    2.1310   20.0773 C   0  0  0  0  0  0  0  0  0  0  0  0
    0.3976    0.9130   20.5773 C   0  0  0  0  0  0  0  0  0  0  0  0
    0.8515   -0.0396   19.6862 C   0  0  0  0  0  0  0  0  0  0  0  0
    0.9186    0.1968   18.3296 C   0  0  0  0  0  0  0  0  0  0  0  0
   -0.8609    2.3968   13.1942 C   0  0  0  0  0  0  0  0  0  0  0  0
    2.2661    2.0917   13.2913 C   0  0  0  0  0  0  0  0  0  0  0  0
    2.4514    1.1304   12.4795 N   0  0  0  0  0  0  0  0  0  0  0  0
    2.4104    1.3423   11.1006 N   0  0  0  0  0  0  0  0  0  0  0  0
    2.8676    2.6255   10.5463 C   0  0  0  0  0  0  0  0  0  0  0  0
    1.8862    2.9496    9.4170 C   0  0  0  0  0  0  0  0  0  0  0  0
    2.0076    1.9988    8.3284 N   0  0  0  0  0  0  0  0  0  0  0  0
    2.5643    0.7366    8.8049 C   0  0  0  0  0  0  0  0  0  0  0  0
    1.9365    0.3622   10.1464 C   0  0  0  0  0  0  0  0  0  0  0  0
    2.8244    2.5909    7.3124 C   0  0  0  0  0  0  0  0  0  0  0  0
    2.1730    3.7191    6.6054 C   0  0  0  0  0  0  0  0  0  0  0  0
    0.9190    3.5948    6.0469 C   0  0  0  0  0  0  0  0  0  0  0  0
    0.3117    4.6657    5.3817 C   0  0  0  0  0  0  0  0  0  0  0  0
    0.9528    5.8812    5.2651 C   0  0  0  0  0  0  0  0  0  0  0  0
    2.2069    5.9917    5.8284 C   0  0  0  0  0  0  0  0  0  0  0  0
    2.8179    4.9331    6.4911 C   0  0  0  0  0  0  0  0  0  0  0  0
  1  2  1  0
  2  3  2  0
  3  4  1  0
  4  5  2  0
  5  6  1  0
  6  7  1  0
  7  8  2  0
  8  9  1  0
  9 10  2  0
 10 11  1  0
 11 12  2  0
  4 13  1  0
  3 14  1  0
 14 15  2  3
 15 16  1  0
 16 17  1  0
 17 18  1  0
 18 19  1  0
 19 20  1  0
 20 21  1  0
 19 22  1  0
 22 23  1  0
 23 24  2  0
 24 25  1  0
 25 26  2  0
 26 27  1  0
 27 28  2  0
  6  2  1  0
 12  7  1  0
 21 16  1  0
 28 23  1  0
M  END
$$$$
