
     RDKit          3D

 28 31  0  0  0  0  0  0  0  0999 V2000
    3.2238    2.4779    8.8127 C   0  0  0  0  0  0  0  0  0  0  0  0
    1.7780    2.1721    8.9729 C   0  0  0  0  0  0  0  0  0  0  0  0
    1.1775    1.2962    9.8447 C   0  0  0  0  0  0  0  0  0  0  0  0
   -0.1732    1.3716    9.6067 C   0  0  0  0  0  0  0  0  0  0  0  0
   -0.3409    2.2599    8.6324 N   0  0  0  0  0  0  0  0  0  0  0  0
    0.8205    2.7511    8.2392 N   0  0  0  0  0  0  0  0  0  0  0  0
    1.0339    3.7363    7.2049 C   0  0  0  0  0  0  0  0  0  0  0  0
    0.5984    5.0384    7.3590 C   0  0  0  0  0  0  0  0  0  0  0  0
    0.8253    5.9242    6.3544 C   0  0  0  0  0  0  0  0  0  0  0  0
    1.4718    5.5638    5.1966 C   0  0  0  0  0  0  0  0  0  0  0  0
    1.8964    4.2557    5.0693 C   0  0  0  0  0  0  0  0  0  0  0  0
    1.6913    3.3176    6.0585 C   0  0  0  0  0  0  0  0  0  0  0  0
   -1.2507    0.5964   10.3147 C   0  0  0  0  0  0  0  0  0  0  0  0
    1.8469    0.4539   10.8293 C   0  0  0  0  0  0  0  0  0  0  0  0
    1.2626    0.0715   11.8922 N   0  0  0  0  0  0  0  0  0  0  0  0
    1.3283    0.8363   13.0578 N   0  0  0  0  0  0  0  0  0  0  0  0
    1.8731    0.2440   14.2887 C   0  0  0  0  0  0  0  0  0  0  0  0
    0.9881    0.7765   15.4186 C   0  0  0  0  0  0  0  0  0  0  0  0
    1.1500    2.2087   15.5803 N   0  0  0  0  0  0  0  0  0  0  0  0
    1.6221    2.8182   14.3410 C   0  0  0  0  0  0  0  0  0  0  0  0
    0.8862    2.2119   13.1474 C   0  0  0  0  0  0  0  0  0  0  0  0
    2.0594    2.4320   16.6633 C   0  0  0  0  0  0  0  0  0  0  0  0
    1.5898    1.8863   17.9590 C   0  0  0  0  0  0  0  0  0  0  0  0
    2.2503    0.8547   18.5910 C   0  0  0  0  0  0  0  0  0  0  0  0
    1.7997    0.3464   19.8144 C   0  0  0  0  0  0  0  0  0  0  0  0
    0.6775    0.8649   20.4256 C   0  0  0  0  0  0  0  0  0  0  0  0
    0.0263    1.8966   19.7825 C   0  0  0  0  0  0  0  0  0  0  0  0
    0.4667    2.4079   18.5668 C   0  0  0  0  0  0  0  0  0  0  0  0
  1  2  1  0
  2  3  2  0
  3  4  1  0
  4  5  2  0
  5  6  1  0
  6  7  1  0
  7  8  2  0
  8  9  1  0
  9 10  2  0
 10 11  1  0
 11 12  2  0
  4 13  1  0
  3 14  1  0
 14 15  2  3
 15 16  1  0
 16 17  1  0
 17 18  1  0
 18 19  1  0
 19 20  1  0
 20 21  1  0
 19 22  1  0
 22 23  1  0
 23 24  2  0
 24 25  1  0
 25 26  2  0
 26 27  1  0
 27 28  2  0
  6  2  1  0
 12  7  1  0
 21 16  1  0
 28 23  1  0
M  END
$$$$
