
     RDKit          3D

 28 31  0  0  0  0  0  0  0  0999 V2000
   -0.1577    3.6102    9.7579 C   0  0  0  0  0  0  0  0  0  0  0  0
    1.1783    2.9826    9.5817 C   0  0  0  0  0  0  0  0  0  0  0  0
    1.9010    2.2358   10.4805 C   0  0  0  0  0  0  0  0  0  0  0  0
    3.0679    1.8834    9.8474 C   0  0  0  0  0  0  0  0  0  0  0  0
    3.0157    2.4099    8.6282 N   0  0  0  0  0  0  0  0  0  0  0  0
    1.8876    3.0738    8.4508 N   0  0  0  0  0  0  0  0  0  0  0  0
    1.4797    3.7765    7.2569 C   0  0  0  0  0  0  0  0  0  0  0  0
    1.4865    3.1525    6.0242 C   0  0  0  0  0  0  0  0  0  0  0  0
    1.0931    3.8605    4.9336 C   0  0  0  0  0  0  0  0  0  0  0  0
    0.6911    5.1717    5.0215 C   0  0  0  0  0  0  0  0  0  0  0  0
    0.6940    5.7705    6.2661 C   0  0  0  0  0  0  0  0  0  0  0  0
    1.0838    5.0969    7.4040 C   0  0  0  0  0  0  0  0  0  0  0  0
    4.1861    1.0603   10.4264 C   0  0  0  0  0  0  0  0  0  0  0  0
    1.5029    1.8870   11.8394 C   0  0  0  0  0  0  0  0  0  0  0  0
    1.8810    2.5685   12.8444 N   0  0  0  0  0  0  0  0  0  0  0  0
    1.5862    2.1499   14.1428 N   0  0  0  0  0  0  0  0  0  0  0  0
    0.7854    0.9344   14.3528 C   0  0  0  0  0  0  0  0  0  0  0  0
   -0.1374    1.2578   15.5306 C   0  0  0  0  0  0  0  0  0  0  0  0
    0.6189    1.4328   16.7559 N   0  0  0  0  0  0  0  0  0  0  0  0
    1.9965    1.8148   16.4623 C   0  0  0  0  0  0  0  0  0  0  0  0
    2.0238    2.8452   15.3347 C   0  0  0  0  0  0  0  0  0  0  0  0
    0.5521    0.2090   17.4960 C   0  0  0  0  0  0  0  0  0  0  0  0
    0.9049    0.3577   18.9280 C   0  0  0  0  0  0  0  0  0  0  0  0
    0.1180    1.0853   19.7947 C   0  0  0  0  0  0  0  0  0  0  0  0
    0.4588    1.2197   21.1452 C   0  0  0  0  0  0  0  0  0  0  0  0
    1.5965    0.6258   21.6501 C   0  0  0  0  0  0  0  0  0  0  0  0
    2.3747   -0.0992   20.7721 C   0  0  0  0  0  0  0  0  0  0  0  0
    2.0438   -0.2381   19.4287 C   0  0  0  0  0  0  0  0  0  0  0  0
  1  2  1  0
  2  3  2  0
  3  4  1  0
  4  5  2  0
  5  6  1  0
  6  7  1  0
  7  8  2  0
  8  9  1  0
  9 10  2  0
 10 11  1  0
 11 12  2  0
  4 13  1  0
  3 14  1  0
 14 15  2  3
 15 16  1  0
 16 17  1  0
 17 18  1  0
 18 19  1  0
 19 20  1  0
 20 21  1  0
 19 22  1  0
 22 23  1  0
 23 24  2  0
 24 25  1  0
 25 26  2  0
 26 27  1  0
 27 28  2  0
  6  2  1  0
 12  7  1  0
 21 16  1  0
 28 23  1  0
M  END
$$$$
