
     RDKit          3D

 28 31  0  0  0  0  0  0  0  0999 V2000
    2.4024   -0.3000   15.8628 C   0  0  0  0  0  0  0  0  0  0  0  0
    1.3673    0.7667   15.8797 C   0  0  0  0  0  0  0  0  0  0  0  0
    0.6973    1.3292   14.8202 C   0  0  0  0  0  0  0  0  0  0  0  0
   -0.1543    2.2679   15.3498 C   0  0  0  0  0  0  0  0  0  0  0  0
    0.0215    2.2440   16.6670 N   0  0  0  0  0  0  0  0  0  0  0  0
    0.9320    1.3481   17.0035 N   0  0  0  0  0  0  0  0  0  0  0  0
    1.3861    1.0405   18.3395 C   0  0  0  0  0  0  0  0  0  0  0  0
    0.4898    0.7289   19.3437 C   0  0  0  0  0  0  0  0  0  0  0  0
    0.9714    0.4479   20.5825 C   0  0  0  0  0  0  0  0  0  0  0  0
    2.3165    0.4647   20.8629 C   0  0  0  0  0  0  0  0  0  0  0  0
    3.1900    0.7795   19.8404 C   0  0  0  0  0  0  0  0  0  0  0  0
    2.7534    1.0724   18.5660 C   0  0  0  0  0  0  0  0  0  0  0  0
   -1.1013    3.1501   14.5830 C   0  0  0  0  0  0  0  0  0  0  0  0
    0.8607    0.9921   13.4108 C   0  0  0  0  0  0  0  0  0  0  0  0
    1.7810    1.5078   12.7005 N   0  0  0  0  0  0  0  0  0  0  0  0
    1.5321    1.9007   11.3847 N   0  0  0  0  0  0  0  0  0  0  0  0
    0.3917    2.7813   11.0900 C   0  0  0  0  0  0  0  0  0  0  0  0
   -0.1958    2.2552    9.7780 C   0  0  0  0  0  0  0  0  0  0  0  0
    0.7283    2.4461    8.6764 N   0  0  0  0  0  0  0  0  0  0  0  0
    2.1010    2.5368    9.1637 C   0  0  0  0  0  0  0  0  0  0  0  0
    2.3384    1.4929   10.2536 C   0  0  0  0  0  0  0  0  0  0  0  0
    0.3356    3.6273    7.9688 C   0  0  0  0  0  0  0  0  0  0  0  0
    0.9834    3.7720    6.6435 C   0  0  0  0  0  0  0  0  0  0  0  0
    0.7129    4.8435    5.8198 C   0  0  0  0  0  0  0  0  0  0  0  0
    1.3298    4.9720    4.5704 C   0  0  0  0  0  0  0  0  0  0  0  0
    2.2297    4.0265    4.1252 C   0  0  0  0  0  0  0  0  0  0  0  0
    2.4911    2.9596    4.9593 C   0  0  0  0  0  0  0  0  0  0  0  0
    1.8829    2.8238    6.2022 C   0  0  0  0  0  0  0  0  0  0  0  0
  1  2  1  0
  2  3  2  0
  3  4  1  0
  4  5  2  0
  5  6  1  0
  6  7  1  0
  7  8  2  0
  8  9  1  0
  9 10  2  0
 10 11  1  0
 11 12  2  0
  4 13  1  0
  3 14  1  0
 14 15  2  3
 15 16  1  0
 16 17  1  0
 17 18  1  0
 18 19  1  0
 19 20  1  0
 20 21  1  0
 19 22  1  0
 22 23  1  0
 23 24  2  0
 24 25  1  0
 25 26  2  0
 26 27  1  0
 27 28  2  0
  6  2  1  0
 12  7  1  0
 21 16  1  0
 28 23  1  0
M  END
$$$$
