
     RDKit          3D

 28 31  0  0  0  0  0  0  0  0999 V2000
    1.2340    4.0273    9.9674 C   0  0  0  0  0  0  0  0  0  0  0  0
    2.1996    2.9793    9.5445 C   0  0  0  0  0  0  0  0  0  0  0  0
    2.9794    2.1640   10.3287 C   0  0  0  0  0  0  0  0  0  0  0  0
    3.6986    1.3677    9.4712 C   0  0  0  0  0  0  0  0  0  0  0  0
    3.3432    1.7146    8.2383 N   0  0  0  0  0  0  0  0  0  0  0  0
    2.4435    2.6813    8.2630 N   0  0  0  0  0  0  0  0  0  0  0  0
    1.8254    3.3130    7.1207 C   0  0  0  0  0  0  0  0  0  0  0  0
    0.4672    3.2029    6.8927 C   0  0  0  0  0  0  0  0  0  0  0  0
   -0.0621    3.8170    5.8026 C   0  0  0  0  0  0  0  0  0  0  0  0
    0.7107    4.5399    4.9259 C   0  0  0  0  0  0  0  0  0  0  0  0
    2.0654    4.6334    5.1781 C   0  0  0  0  0  0  0  0  0  0  0  0
    2.6525    4.0295    6.2696 C   0  0  0  0  0  0  0  0  0  0  0  0
    4.6949    0.3088    9.8575 C   0  0  0  0  0  0  0  0  0  0  0  0
    3.0299    2.1495   11.7861 C   0  0  0  0  0  0  0  0  0  0  0  0
    2.1734    1.5153   12.4802 N   0  0  0  0  0  0  0  0  0  0  0  0
    2.2442    1.5132   13.8740 N   0  0  0  0  0  0  0  0  0  0  0  0
    1.3378    0.6523   14.6488 C   0  0  0  0  0  0  0  0  0  0  0  0
    0.9311    1.4868   15.8660 C   0  0  0  0  0  0  0  0  0  0  0  0
    2.0649    1.7292   16.7375 N   0  0  0  0  0  0  0  0  0  0  0  0
    3.3173    1.6341   15.9941 C   0  0  0  0  0  0  0  0  0  0  0  0
    3.1725    2.3205   14.6370 C   0  0  0  0  0  0  0  0  0  0  0  0
    2.0094    0.7822   17.8099 C   0  0  0  0  0  0  0  0  0  0  0  0
    0.7800    0.8829   18.6318 C   0  0  0  0  0  0  0  0  0  0  0  0
    0.4957    2.0103   19.3722 C   0  0  0  0  0  0  0  0  0  0  0  0
   -0.6678    2.0965   20.1448 C   0  0  0  0  0  0  0  0  0  0  0  0
   -1.5672    1.0519   20.1880 C   0  0  0  0  0  0  0  0  0  0  0  0
   -1.2705   -0.0700   19.4427 C   0  0  0  0  0  0  0  0  0  0  0  0
   -0.1169   -0.1644   18.6722 C   0  0  0  0  0  0  0  0  0  0  0  0
  1  2  1  0
  2  3  2  0
  3  4  1  0
  4  5  2  0
  5  6  1  0
  6  7  1  0
  7  8  2  0
  8  9  1  0
  9 10  2  0
 10 11  1  0
 11 12  2  0
  4 13  1  0
  3 14  1  0
 14 15  2  3
 15 16  1  0
 16 17  1  0
 17 18  1  0
 18 19  1  0
 19 20  1  0
 20 21  1  0
 19 22  1  0
 22 23  1  0
 23 24  2  0
 24 25  1  0
 25 26  2  0
 26 27  1  0
 27 28  2  0
  6  2  1  0
 12  7  1  0
 21 16  1  0
 28 23  1  0
M  END
$$$$
