
     RDKit          3D

 28 31  0  0  0  0  0  0  0  0999 V2000
   -0.6891    2.3794   16.8670 C   0  0  0  0  0  0  0  0  0  0  0  0
    0.5652    1.6255   17.1281 C   0  0  0  0  0  0  0  0  0  0  0  0
    1.4540    1.0984   16.2227 C   0  0  0  0  0  0  0  0  0  0  0  0
    2.4487    0.4977   16.9551 C   0  0  0  0  0  0  0  0  0  0  0  0
    2.1406    0.6745   18.2359 N   0  0  0  0  0  0  0  0  0  0  0  0
    1.0122    1.3501   18.3589 N   0  0  0  0  0  0  0  0  0  0  0  0
    0.3652    1.7301   19.5929 C   0  0  0  0  0  0  0  0  0  0  0  0
    0.0225    0.7839   20.5396 C   0  0  0  0  0  0  0  0  0  0  0  0
   -0.5846    1.1965   21.6828 C   0  0  0  0  0  0  0  0  0  0  0  0
   -0.8654    2.5202   21.9224 C   0  0  0  0  0  0  0  0  0  0  0  0
   -0.5118    3.4446   20.9590 C   0  0  0  0  0  0  0  0  0  0  0  0
    0.1059    3.0787   19.7821 C   0  0  0  0  0  0  0  0  0  0  0  0
    3.6524   -0.2204   16.4088 C   0  0  0  0  0  0  0  0  0  0  0  0
    1.3571    1.1665   14.7691 C   0  0  0  0  0  0  0  0  0  0  0  0
    2.0627    1.9758   14.0875 N   0  0  0  0  0  0  0  0  0  0  0  0
    1.8647    2.1127   12.7128 N   0  0  0  0  0  0  0  0  0  0  0  0
    0.7140    1.4575   12.0731 C   0  0  0  0  0  0  0  0  0  0  0  0
    1.2401    0.9358   10.7335 C   0  0  0  0  0  0  0  0  0  0  0  0
    1.5968    2.0288    9.8493 N   0  0  0  0  0  0  0  0  0  0  0  0
    1.9012    3.2338   10.6145 C   0  0  0  0  0  0  0  0  0  0  0  0
    2.7353    2.8754   11.8432 C   0  0  0  0  0  0  0  0  0  0  0  0
    0.5101    2.2358    8.9405 C   0  0  0  0  0  0  0  0  0  0  0  0
    0.8035    3.2229    7.8744 C   0  0  0  0  0  0  0  0  0  0  0  0
    0.2219    4.4725    7.8662 C   0  0  0  0  0  0  0  0  0  0  0  0
    0.5055    5.3981    6.8557 C   0  0  0  0  0  0  0  0  0  0  0  0
    1.3784    5.0856    5.8348 C   0  0  0  0  0  0  0  0  0  0  0  0
    1.9531    3.8320    5.8552 C   0  0  0  0  0  0  0  0  0  0  0  0
    1.6773    2.9061    6.8551 C   0  0  0  0  0  0  0  0  0  0  0  0
  1  2  1  0
  2  3  2  0
  3  4  1  0
  4  5  2  0
  5  6  1  0
  6  7  1  0
  7  8  2  0
  8  9  1  0
  9 10  2  0
 10 11  1  0
 11 12  2  0
  4 13  1  0
  3 14  1  0
 14 15  2  3
 15 16  1  0
 16 17  1  0
 17 18  1  0
 18 19  1  0
 19 20  1  0
 20 21  1  0
 19 22  1  0
 22 23  1  0
 23 24  2  0
 24 25  1  0
 25 26  2  0
 26 27  1  0
 27 28  2  0
  6  2  1  0
 12  7  1  0
 21 16  1  0
 28 23  1  0
M  END
$$$$
