
     RDKit          3D

 28 31  0  0  0  0  0  0  0  0999 V2000
   -0.5378    1.7806   16.5367 C   0  0  0  0  0  0  0  0  0  0  0  0
    0.8029    1.2617   16.9147 C   0  0  0  0  0  0  0  0  0  0  0  0
    1.8064    0.8004   16.0974 C   0  0  0  0  0  0  0  0  0  0  0  0
    2.8438    0.4345   16.9199 C   0  0  0  0  0  0  0  0  0  0  0  0
    2.4485    0.6776   18.1654 N   0  0  0  0  0  0  0  0  0  0  0  0
    1.2249    1.1749   18.1815 N   0  0  0  0  0  0  0  0  0  0  0  0
    0.4664    1.5600   19.3486 C   0  0  0  0  0  0  0  0  0  0  0  0
    0.0829    2.8722   19.5493 C   0  0  0  0  0  0  0  0  0  0  0  0
   -0.6294    3.1792   20.6645 C   0  0  0  0  0  0  0  0  0  0  0  0
   -0.9770    2.2274   21.5928 C   0  0  0  0  0  0  0  0  0  0  0  0
   -0.5806    0.9238   21.3670 C   0  0  0  0  0  0  0  0  0  0  0  0
    0.1433    0.5592   20.2518 C   0  0  0  0  0  0  0  0  0  0  0  0
    4.1694   -0.1317   16.4896 C   0  0  0  0  0  0  0  0  0  0  0  0
    1.7729    0.7181   14.6417 C   0  0  0  0  0  0  0  0  0  0  0  0
    2.0867    1.7077   13.9070 N   0  0  0  0  0  0  0  0  0  0  0  0
    1.6703    1.7695   12.5764 N   0  0  0  0  0  0  0  0  0  0  0  0
    2.5895    2.2789   11.5477 C   0  0  0  0  0  0  0  0  0  0  0  0
    1.7186    3.1156   10.6071 C   0  0  0  0  0  0  0  0  0  0  0  0
    0.7699    2.2832    9.8925 N   0  0  0  0  0  0  0  0  0  0  0  0
    0.5051    1.0519   10.6300 C   0  0  0  0  0  0  0  0  0  0  0  0
    0.3600    1.3566   12.1199 C   0  0  0  0  0  0  0  0  0  0  0  0
    1.3048    2.0195    8.5908 C   0  0  0  0  0  0  0  0  0  0  0  0
    1.3717    3.2166    7.7194 C   0  0  0  0  0  0  0  0  0  0  0  0
    0.3635    4.1564    7.7033 C   0  0  0  0  0  0  0  0  0  0  0  0
    0.4357    5.2838    6.8776 C   0  0  0  0  0  0  0  0  0  0  0  0
    1.5219    5.4880    6.0527 C   0  0  0  0  0  0  0  0  0  0  0  0
    2.5233    4.5400    6.0786 C   0  0  0  0  0  0  0  0  0  0  0  0
    2.4600    3.4169    6.8958 C   0  0  0  0  0  0  0  0  0  0  0  0
  1  2  1  0
  2  3  2  0
  3  4  1  0
  4  5  2  0
  5  6  1  0
  6  7  1  0
  7  8  2  0
  8  9  1  0
  9 10  2  0
 10 11  1  0
 11 12  2  0
  4 13  1  0
  3 14  1  0
 14 15  2  3
 15 16  1  0
 16 17  1  0
 17 18  1  0
 18 19  1  0
 19 20  1  0
 20 21  1  0
 19 22  1  0
 22 23  1  0
 23 24  2  0
 24 25  1  0
 25 26  2  0
 26 27  1  0
 27 28  2  0
  6  2  1  0
 12  7  1  0
 21 16  1  0
 28 23  1  0
M  END
$$$$
