
     RDKit          3D

 28 31  0  0  0  0  0  0  0  0999 V2000
   -0.3585    1.2544   15.2426 C   0  0  0  0  0  0  0  0  0  0  0  0
    1.0944    1.1855   15.5492 C   0  0  0  0  0  0  0  0  0  0  0  0
    2.1589    1.2719   14.6848 C   0  0  0  0  0  0  0  0  0  0  0  0
    3.2940    1.1527   15.4490 C   0  0  0  0  0  0  0  0  0  0  0  0
    2.8939    1.0032   16.7075 N   0  0  0  0  0  0  0  0  0  0  0  0
    1.5755    1.0205   16.7868 N   0  0  0  0  0  0  0  0  0  0  0  0
    0.7822    0.8864   17.9862 C   0  0  0  0  0  0  0  0  0  0  0  0
    0.1674    1.9820   18.5612 C   0  0  0  0  0  0  0  0  0  0  0  0
   -0.5670    1.7992   19.6893 C   0  0  0  0  0  0  0  0  0  0  0  0
   -0.7145    0.5630   20.2710 C   0  0  0  0  0  0  0  0  0  0  0  0
   -0.0891   -0.5147   19.6751 C   0  0  0  0  0  0  0  0  0  0  0  0
    0.6673   -0.3836   18.5300 C   0  0  0  0  0  0  0  0  0  0  0  0
    4.7138    1.1855   14.9526 C   0  0  0  0  0  0  0  0  0  0  0  0
    2.0922    1.4554   13.2395 C   0  0  0  0  0  0  0  0  0  0  0  0
    3.0760    1.1783   12.4826 N   0  0  0  0  0  0  0  0  0  0  0  0
    3.0573    1.5262   11.1312 N   0  0  0  0  0  0  0  0  0  0  0  0
    2.7428    2.9080   10.7383 C   0  0  0  0  0  0  0  0  0  0  0  0
    1.8721    2.7830    9.4855 C   0  0  0  0  0  0  0  0  0  0  0  0
    2.6270    2.2333    8.3756 N   0  0  0  0  0  0  0  0  0  0  0  0
    3.7592    1.4494    8.8591 C   0  0  0  0  0  0  0  0  0  0  0  0
    3.3331    0.5988   10.0543 C   0  0  0  0  0  0  0  0  0  0  0  0
    3.0485    3.3207    7.5451 C   0  0  0  0  0  0  0  0  0  0  0  0
    1.9645    3.8867    6.7074 C   0  0  0  0  0  0  0  0  0  0  0  0
    1.2661    3.1106    5.8075 C   0  0  0  0  0  0  0  0  0  0  0  0
    0.2438    3.6536    5.0213 C   0  0  0  0  0  0  0  0  0  0  0  0
   -0.0958    4.9863    5.1244 C   0  0  0  0  0  0  0  0  0  0  0  0
    0.6109    5.7513    6.0285 C   0  0  0  0  0  0  0  0  0  0  0  0
    1.6280    5.2202    6.8138 C   0  0  0  0  0  0  0  0  0  0  0  0
  1  2  1  0
  2  3  2  0
  3  4  1  0
  4  5  2  0
  5  6  1  0
  6  7  1  0
  7  8  2  0
  8  9  1  0
  9 10  2  0
 10 11  1  0
 11 12  2  0
  4 13  1  0
  3 14  1  0
 14 15  2  3
 15 16  1  0
 16 17  1  0
 17 18  1  0
 18 19  1  0
 19 20  1  0
 20 21  1  0
 19 22  1  0
 22 23  1  0
 23 24  2  0
 24 25  1  0
 25 26  2  0
 26 27  1  0
 27 28  2  0
  6  2  1  0
 12  7  1  0
 21 16  1  0
 28 23  1  0
M  END
$$$$
