
     RDKit          3D

 28 31  0  0  0  0  0  0  0  0999 V2000
   -0.3871    2.2051   16.6980 C   0  0  0  0  0  0  0  0  0  0  0  0
    0.9476    1.5641   16.8294 C   0  0  0  0  0  0  0  0  0  0  0  0
    1.8086    1.1631   15.8366 C   0  0  0  0  0  0  0  0  0  0  0  0
    2.9079    0.6296   16.4639 C   0  0  0  0  0  0  0  0  0  0  0  0
    2.6847    0.7217   17.7709 N   0  0  0  0  0  0  0  0  0  0  0  0
    1.5118    1.2806   18.0091 N   0  0  0  0  0  0  0  0  0  0  0  0
    0.9299    1.5444   19.3044 C   0  0  0  0  0  0  0  0  0  0  0  0
   -0.1460    0.8107   19.7660 C   0  0  0  0  0  0  0  0  0  0  0  0
   -0.6544    1.1010   20.9918 C   0  0  0  0  0  0  0  0  0  0  0  0
   -0.1319    2.0976   21.7806 C   0  0  0  0  0  0  0  0  0  0  0  0
    0.9435    2.8151   21.2943 C   0  0  0  0  0  0  0  0  0  0  0  0
    1.4969    2.5607   20.0575 C   0  0  0  0  0  0  0  0  0  0  0  0
    4.1268    0.0536   15.7963 C   0  0  0  0  0  0  0  0  0  0  0  0
    1.5939    1.2833   14.3991 C   0  0  0  0  0  0  0  0  0  0  0  0
    2.2738    2.0863   13.6846 N   0  0  0  0  0  0  0  0  0  0  0  0
    2.0332    2.2020   12.3147 N   0  0  0  0  0  0  0  0  0  0  0  0
    0.8588    1.5441   11.7226 C   0  0  0  0  0  0  0  0  0  0  0  0
    1.3390    0.9972   10.3759 C   0  0  0  0  0  0  0  0  0  0  0  0
    1.6743    2.0732    9.4629 N   0  0  0  0  0  0  0  0  0  0  0  0
    2.0101    3.2884   10.1981 C   0  0  0  0  0  0  0  0  0  0  0  0
    2.8804    2.9446   11.4057 C   0  0  0  0  0  0  0  0  0  0  0  0
    0.5606    2.2726    8.5855 C   0  0  0  0  0  0  0  0  0  0  0  0
    0.7990    3.2981    7.5422 C   0  0  0  0  0  0  0  0  0  0  0  0
    1.5448    3.0237    6.4159 C   0  0  0  0  0  0  0  0  0  0  0  0
    1.7641    3.9982    5.4359 C   0  0  0  0  0  0  0  0  0  0  0  0
    1.2384    5.2662    5.5691 C   0  0  0  0  0  0  0  0  0  0  0  0
    0.4944    5.5272    6.7006 C   0  0  0  0  0  0  0  0  0  0  0  0
    0.2713    4.5651    7.6794 C   0  0  0  0  0  0  0  0  0  0  0  0
  1  2  1  0
  2  3  2  0
  3  4  1  0
  4  5  2  0
  5  6  1  0
  6  7  1  0
  7  8  2  0
  8  9  1  0
  9 10  2  0
 10 11  1  0
 11 12  2  0
  4 13  1  0
  3 14  1  0
 14 15  2  3
 15 16  1  0
 16 17  1  0
 17 18  1  0
 18 19  1  0
 19 20  1  0
 20 21  1  0
 19 22  1  0
 22 23  1  0
 23 24  2  0
 24 25  1  0
 25 26  2  0
 26 27  1  0
 27 28  2  0
  6  2  1  0
 12  7  1  0
 21 16  1  0
 28 23  1  0
M  END
$$$$
