
     RDKit          3D

 28 31  0  0  0  0  0  0  0  0999 V2000
    2.6269    1.8189   15.8127 C   0  0  0  0  0  0  0  0  0  0  0  0
    1.5287    0.9136   15.3839 C   0  0  0  0  0  0  0  0  0  0  0  0
    1.1549    0.5616   14.1095 C   0  0  0  0  0  0  0  0  0  0  0  0
    0.0896   -0.2961   14.2371 C   0  0  0  0  0  0  0  0  0  0  0  0
   -0.1391   -0.4309   15.5394 N   0  0  0  0  0  0  0  0  0  0  0  0
    0.7159    0.2887   16.2437 N   0  0  0  0  0  0  0  0  0  0  0  0
    0.7747    0.3922   17.6830 C   0  0  0  0  0  0  0  0  0  0  0  0
    1.4710   -0.5329   18.4370 C   0  0  0  0  0  0  0  0  0  0  0  0
    1.4935   -0.3879   19.7875 C   0  0  0  0  0  0  0  0  0  0  0  0
    0.8473    0.6464   20.4207 C   0  0  0  0  0  0  0  0  0  0  0  0
    0.1591    1.5566   19.6426 C   0  0  0  0  0  0  0  0  0  0  0  0
    0.1049    1.4552   18.2687 C   0  0  0  0  0  0  0  0  0  0  0  0
   -0.6686   -0.9534   13.1163 C   0  0  0  0  0  0  0  0  0  0  0  0
    1.7719    1.0118   12.8672 C   0  0  0  0  0  0  0  0  0  0  0  0
    1.7006    2.2223   12.4836 N   0  0  0  0  0  0  0  0  0  0  0  0
    1.9676    2.5683   11.1582 N   0  0  0  0  0  0  0  0  0  0  0  0
    1.0302    3.4346   10.4278 C   0  0  0  0  0  0  0  0  0  0  0  0
    0.9725    2.8613    9.0096 C   0  0  0  0  0  0  0  0  0  0  0  0
    2.2443    3.0165    8.3296 N   0  0  0  0  0  0  0  0  0  0  0  0
    3.3348    3.1283    9.2932 C   0  0  0  0  0  0  0  0  0  0  0  0
    3.1351    2.1238   10.4267 C   0  0  0  0  0  0  0  0  0  0  0  0
    2.1579    4.1710    7.4873 C   0  0  0  0  0  0  0  0  0  0  0  0
    1.0963    4.0798    6.4569 C   0  0  0  0  0  0  0  0  0  0  0  0
   -0.1167    4.7161    6.6103 C   0  0  0  0  0  0  0  0  0  0  0  0
   -1.1128    4.6247    5.6318 C   0  0  0  0  0  0  0  0  0  0  0  0
   -0.9089    3.8924    4.4811 C   0  0  0  0  0  0  0  0  0  0  0  0
    0.3091    3.2610    4.3403 C   0  0  0  0  0  0  0  0  0  0  0  0
    1.3046    3.3463    5.3073 C   0  0  0  0  0  0  0  0  0  0  0  0
  1  2  1  0
  2  3  2  0
  3  4  1  0
  4  5  2  0
  5  6  1  0
  6  7  1  0
  7  8  2  0
  8  9  1  0
  9 10  2  0
 10 11  1  0
 11 12  2  0
  4 13  1  0
  3 14  1  0
 14 15  2  3
 15 16  1  0
 16 17  1  0
 17 18  1  0
 18 19  1  0
 19 20  1  0
 20 21  1  0
 19 22  1  0
 22 23  1  0
 23 24  2  0
 24 25  1  0
 25 26  2  0
 26 27  1  0
 27 28  2  0
  6  2  1  0
 12  7  1  0
 21 16  1  0
 28 23  1  0
M  END
$$$$
