
     RDKit          3D

 28 31  0  0  0  0  0  0  0  0999 V2000
    3.9107    1.3188   15.5213 C   0  0  0  0  0  0  0  0  0  0  0  0
    2.4961    1.7206   15.3046 C   0  0  0  0  0  0  0  0  0  0  0  0
    1.9304    2.3076   14.1986 C   0  0  0  0  0  0  0  0  0  0  0  0
    0.5982    2.4801   14.4855 C   0  0  0  0  0  0  0  0  0  0  0  0
    0.4071    2.0083   15.7132 N   0  0  0  0  0  0  0  0  0  0  0  0
    1.5363    1.5479   16.2209 N   0  0  0  0  0  0  0  0  0  0  0  0
    1.7178    0.9613   17.5281 C   0  0  0  0  0  0  0  0  0  0  0  0
    2.3848    1.6412   18.5289 C   0  0  0  0  0  0  0  0  0  0  0  0
    2.5272    1.0423   19.7399 C   0  0  0  0  0  0  0  0  0  0  0  0
    2.0296   -0.2128   19.9957 C   0  0  0  0  0  0  0  0  0  0  0  0
    1.3672   -0.8696   18.9772 C   0  0  0  0  0  0  0  0  0  0  0  0
    1.1954   -0.3068   17.7304 C   0  0  0  0  0  0  0  0  0  0  0  0
   -0.4401    3.0864   13.5814 C   0  0  0  0  0  0  0  0  0  0  0  0
    2.6140    2.6732   12.9634 C   0  0  0  0  0  0  0  0  0  0  0  0
    2.5839    1.9265   11.9343 N   0  0  0  0  0  0  0  0  0  0  0  0
    2.2715    2.4520   10.6796 N   0  0  0  0  0  0  0  0  0  0  0  0
    2.8694    3.7262   10.2534 C   0  0  0  0  0  0  0  0  0  0  0  0
    1.7530    4.4684    9.5144 C   0  0  0  0  0  0  0  0  0  0  0  0
    1.3938    3.7857    8.2861 N   0  0  0  0  0  0  0  0  0  0  0  0
    1.7400    2.3699    8.3619 C   0  0  0  0  0  0  0  0  0  0  0  0
    1.3747    1.8159    9.7379 C   0  0  0  0  0  0  0  0  0  0  0  0
    2.0640    4.4403    7.2034 C   0  0  0  0  0  0  0  0  0  0  0  0
    1.4227    4.2217    5.8851 C   0  0  0  0  0  0  0  0  0  0  0  0
    0.1049    4.5559    5.6579 C   0  0  0  0  0  0  0  0  0  0  0  0
   -0.4919    4.3462    4.4097 C   0  0  0  0  0  0  0  0  0  0  0  0
    0.2240    3.7970    3.3667 C   0  0  0  0  0  0  0  0  0  0  0  0
    1.5413    3.4672    3.6077 C   0  0  0  0  0  0  0  0  0  0  0  0
    2.1424    3.6719    4.8447 C   0  0  0  0  0  0  0  0  0  0  0  0
  1  2  1  0
  2  3  2  0
  3  4  1  0
  4  5  2  0
  5  6  1  0
  6  7  1  0
  7  8  2  0
  8  9  1  0
  9 10  2  0
 10 11  1  0
 11 12  2  0
  4 13  1  0
  3 14  1  0
 14 15  2  3
 15 16  1  0
 16 17  1  0
 17 18  1  0
 18 19  1  0
 19 20  1  0
 20 21  1  0
 19 22  1  0
 22 23  1  0
 23 24  2  0
 24 25  1  0
 25 26  2  0
 26 27  1  0
 27 28  2  0
  6  2  1  0
 12  7  1  0
 21 16  1  0
 28 23  1  0
M  END
$$$$
