
     RDKit          3D

 28 31  0  0  0  0  0  0  0  0999 V2000
    2.0381   -0.2783   15.9995 C   0  0  0  0  0  0  0  0  0  0  0  0
    1.3753    1.0431   15.8432 C   0  0  0  0  0  0  0  0  0  0  0  0
    1.0076    1.6873   14.6867 C   0  0  0  0  0  0  0  0  0  0  0  0
    0.4327    2.8755   15.0667 C   0  0  0  0  0  0  0  0  0  0  0  0
    0.4696    2.9109   16.3948 N   0  0  0  0  0  0  0  0  0  0  0  0
    1.0325    1.8183   16.8786 N   0  0  0  0  0  0  0  0  0  0  0  0
    1.2464    1.5034   18.2718 C   0  0  0  0  0  0  0  0  0  0  0  0
    0.4650    0.5659   18.9194 C   0  0  0  0  0  0  0  0  0  0  0  0
    0.7092    0.3083   20.2307 C   0  0  0  0  0  0  0  0  0  0  0  0
    1.7054    0.9500   20.9266 C   0  0  0  0  0  0  0  0  0  0  0  0
    2.4713    1.8823   20.2544 C   0  0  0  0  0  0  0  0  0  0  0  0
    2.2648    2.1806   18.9244 C   0  0  0  0  0  0  0  0  0  0  0  0
   -0.1290    3.9299   14.1524 C   0  0  0  0  0  0  0  0  0  0  0  0
    1.1924    1.2008   13.3244 C   0  0  0  0  0  0  0  0  0  0  0  0
    2.2620    1.4222   12.6729 N   0  0  0  0  0  0  0  0  0  0  0  0
    2.2163    1.7684   11.3216 N   0  0  0  0  0  0  0  0  0  0  0  0
    1.9164    0.7391   10.3150 C   0  0  0  0  0  0  0  0  0  0  0  0
    2.8351    1.0526    9.1314 C   0  0  0  0  0  0  0  0  0  0  0  0
    2.4753    2.3120    8.5082 N   0  0  0  0  0  0  0  0  0  0  0  0
    1.7738    3.1743    9.4539 C   0  0  0  0  0  0  0  0  0  0  0  0
    2.4495    3.1071   10.8224 C   0  0  0  0  0  0  0  0  0  0  0  0
    1.6752    2.0234    7.3564 C   0  0  0  0  0  0  0  0  0  0  0  0
    1.5125    3.1760    6.4388 C   0  0  0  0  0  0  0  0  0  0  0  0
    1.5433    4.4754    6.8977 C   0  0  0  0  0  0  0  0  0  0  0  0
    1.3893    5.5573    6.0238 C   0  0  0  0  0  0  0  0  0  0  0  0
    1.2015    5.3541    4.6727 C   0  0  0  0  0  0  0  0  0  0  0  0
    1.1727    4.0492    4.2271 C   0  0  0  0  0  0  0  0  0  0  0  0
    1.3248    2.9681    5.0882 C   0  0  0  0  0  0  0  0  0  0  0  0
  1  2  1  0
  2  3  2  0
  3  4  1  0
  4  5  2  0
  5  6  1  0
  6  7  1  0
  7  8  2  0
  8  9  1  0
  9 10  2  0
 10 11  1  0
 11 12  2  0
  4 13  1  0
  3 14  1  0
 14 15  2  3
 15 16  1  0
 16 17  1  0
 17 18  1  0
 18 19  1  0
 19 20  1  0
 20 21  1  0
 19 22  1  0
 22 23  1  0
 23 24  2  0
 24 25  1  0
 25 26  2  0
 26 27  1  0
 27 28  2  0
  6  2  1  0
 12  7  1  0
 21 16  1  0
 28 23  1  0
M  END
$$$$
