
     RDKit          3D

 28 31  0  0  0  0  0  0  0  0999 V2000
   -0.4884    1.8249   16.3891 C   0  0  0  0  0  0  0  0  0  0  0  0
    0.7897    1.2727   16.9099 C   0  0  0  0  0  0  0  0  0  0  0  0
    1.8559    0.7667   16.2064 C   0  0  0  0  0  0  0  0  0  0  0  0
    2.7921    0.3846   17.1360 C   0  0  0  0  0  0  0  0  0  0  0  0
    2.2802    0.6619   18.3308 N   0  0  0  0  0  0  0  0  0  0  0  0
    1.0777    1.1960   18.2144 N   0  0  0  0  0  0  0  0  0  0  0  0
    0.2170    1.6248   19.2919 C   0  0  0  0  0  0  0  0  0  0  0  0
   -0.4172    0.7069   20.1069 C   0  0  0  0  0  0  0  0  0  0  0  0
   -1.2160    1.1651   21.1056 C   0  0  0  0  0  0  0  0  0  0  0  0
   -1.4097    2.5075   21.3265 C   0  0  0  0  0  0  0  0  0  0  0  0
   -0.7635    3.4029   20.4968 C   0  0  0  0  0  0  0  0  0  0  0  0
    0.0576    2.9905   19.4691 C   0  0  0  0  0  0  0  0  0  0  0  0
    4.1360   -0.2290   16.8519 C   0  0  0  0  0  0  0  0  0  0  0  0
    1.9682    0.6592   14.7563 C   0  0  0  0  0  0  0  0  0  0  0  0
    2.7628    1.3947   14.0892 N   0  0  0  0  0  0  0  0  0  0  0  0
    2.4414    1.8013   12.7933 N   0  0  0  0  0  0  0  0  0  0  0  0
    2.0599    0.7980   11.7880 C   0  0  0  0  0  0  0  0  0  0  0  0
    2.7161    1.2626   10.4853 C   0  0  0  0  0  0  0  0  0  0  0  0
    2.1352    2.5079   10.0211 N   0  0  0  0  0  0  0  0  0  0  0  0
    1.5405    3.2457   11.1311 C   0  0  0  0  0  0  0  0  0  0  0  0
    2.4563    3.1800   12.3521 C   0  0  0  0  0  0  0  0  0  0  0  0
    1.1696    2.1966    9.0109 C   0  0  0  0  0  0  0  0  0  0  0  0
    0.7152    3.3757    8.2361 C   0  0  0  0  0  0  0  0  0  0  0  0
    1.6035    4.1770    7.5515 C   0  0  0  0  0  0  0  0  0  0  0  0
    1.1651    5.2879    6.8223 C   0  0  0  0  0  0  0  0  0  0  0  0
   -0.1736    5.6145    6.7673 C   0  0  0  0  0  0  0  0  0  0  0  0
   -1.0515    4.8045    7.4568 C   0  0  0  0  0  0  0  0  0  0  0  0
   -0.6248    3.6987    8.1839 C   0  0  0  0  0  0  0  0  0  0  0  0
  1  2  1  0
  2  3  2  0
  3  4  1  0
  4  5  2  0
  5  6  1  0
  6  7  1  0
  7  8  2  0
  8  9  1  0
  9 10  2  0
 10 11  1  0
 11 12  2  0
  4 13  1  0
  3 14  1  0
 14 15  2  3
 15 16  1  0
 16 17  1  0
 17 18  1  0
 18 19  1  0
 19 20  1  0
 20 21  1  0
 19 22  1  0
 22 23  1  0
 23 24  2  0
 24 25  1  0
 25 26  2  0
 26 27  1  0
 27 28  2  0
  6  2  1  0
 12  7  1  0
 21 16  1  0
 28 23  1  0
M  END
$$$$
