
     RDKit          3D

 28 31  0  0  0  0  0  0  0  0999 V2000
    0.0190    1.6161   15.6090 C   0  0  0  0  0  0  0  0  0  0  0  0
    1.4923    1.5741   15.8024 C   0  0  0  0  0  0  0  0  0  0  0  0
    2.4844    1.6323   14.8537 C   0  0  0  0  0  0  0  0  0  0  0  0
    3.6775    1.5570   15.5301 C   0  0  0  0  0  0  0  0  0  0  0  0
    3.3794    1.4590   16.8216 N   0  0  0  0  0  0  0  0  0  0  0  0
    2.0712    1.4677   17.0041 N   0  0  0  0  0  0  0  0  0  0  0  0
    1.3764    1.3789   18.2671 C   0  0  0  0  0  0  0  0  0  0  0  0
    0.5606    2.4039   18.7061 C   0  0  0  0  0  0  0  0  0  0  0  0
   -0.0691    2.2682   19.9022 C   0  0  0  0  0  0  0  0  0  0  0  0
    0.0818    1.1472   20.6827 C   0  0  0  0  0  0  0  0  0  0  0  0
    0.9032    0.1382   20.2193 C   0  0  0  0  0  0  0  0  0  0  0  0
    1.5649    0.2258   19.0131 C   0  0  0  0  0  0  0  0  0  0  0  0
    5.0533    1.5812   14.9222 C   0  0  0  0  0  0  0  0  0  0  0  0
    2.3021    1.7518   13.4117 C   0  0  0  0  0  0  0  0  0  0  0  0
    1.9226    2.8390   12.8718 N   0  0  0  0  0  0  0  0  0  0  0  0
    1.7811    2.9373   11.4868 N   0  0  0  0  0  0  0  0  0  0  0  0
    0.5461    2.4630   10.8447 C   0  0  0  0  0  0  0  0  0  0  0  0
    0.9993    1.7880    9.5476 C   0  0  0  0  0  0  0  0  0  0  0  0
    1.5631    2.7537    8.6238 N   0  0  0  0  0  0  0  0  0  0  0  0
    2.0605    3.9241    9.3400 C   0  0  0  0  0  0  0  0  0  0  0  0
    2.7915    3.4884   10.6087 C   0  0  0  0  0  0  0  0  0  0  0  0
    0.5498    3.1017    7.6740 C   0  0  0  0  0  0  0  0  0  0  0  0
    1.0271    3.9971    6.5935 C   0  0  0  0  0  0  0  0  0  0  0  0
    1.7880    3.5243    5.5460 C   0  0  0  0  0  0  0  0  0  0  0  0
    2.2336    4.3771    4.5300 C   0  0  0  0  0  0  0  0  0  0  0  0
    1.9231    5.7207    4.5475 C   0  0  0  0  0  0  0  0  0  0  0  0
    1.1612    6.1805    5.6012 C   0  0  0  0  0  0  0  0  0  0  0  0
    0.7142    5.3404    6.6149 C   0  0  0  0  0  0  0  0  0  0  0  0
  1  2  1  0
  2  3  2  0
  3  4  1  0
  4  5  2  0
  5  6  1  0
  6  7  1  0
  7  8  2  0
  8  9  1  0
  9 10  2  0
 10 11  1  0
 11 12  2  0
  4 13  1  0
  3 14  1  0
 14 15  2  3
 15 16  1  0
 16 17  1  0
 17 18  1  0
 18 19  1  0
 19 20  1  0
 20 21  1  0
 19 22  1  0
 22 23  1  0
 23 24  2  0
 24 25  1  0
 25 26  2  0
 26 27  1  0
 27 28  2  0
  6  2  1  0
 12  7  1  0
 21 16  1  0
 28 23  1  0
M  END
$$$$
