
     RDKit          3D

 28 31  0  0  0  0  0  0  0  0999 V2000
    2.1925    0.2703   15.2689 C   0  0  0  0  0  0  0  0  0  0  0  0
    1.9403    1.6014   15.8806 C   0  0  0  0  0  0  0  0  0  0  0  0
    1.7922    2.8175   15.2588 C   0  0  0  0  0  0  0  0  0  0  0  0
    1.5769    3.7413   16.2523 C   0  0  0  0  0  0  0  0  0  0  0  0
    1.6008    3.0775   17.4035 N   0  0  0  0  0  0  0  0  0  0  0  0
    1.8179    1.7906   17.1996 N   0  0  0  0  0  0  0  0  0  0  0  0
    1.9094    0.7615   18.2087 C   0  0  0  0  0  0  0  0  0  0  0  0
    0.8265    0.4464   19.0068 C   0  0  0  0  0  0  0  0  0  0  0  0
    0.9677   -0.5301   19.9405 C   0  0  0  0  0  0  0  0  0  0  0  0
    2.1501   -1.2090   20.1125 C   0  0  0  0  0  0  0  0  0  0  0  0
    3.2163   -0.8737   19.3010 C   0  0  0  0  0  0  0  0  0  0  0  0
    3.1257    0.1091   18.3385 C   0  0  0  0  0  0  0  0  0  0  0  0
    1.3571    5.2181   16.0680 C   0  0  0  0  0  0  0  0  0  0  0  0
    1.8516    3.0731   13.8242 C   0  0  0  0  0  0  0  0  0  0  0  0
    0.8089    3.0545   13.0963 N   0  0  0  0  0  0  0  0  0  0  0  0
    0.8988    2.8041   11.7262 N   0  0  0  0  0  0  0  0  0  0  0  0
    1.8558    3.5635   10.9076 C   0  0  0  0  0  0  0  0  0  0  0  0
    1.1260    3.8462    9.5920 C   0  0  0  0  0  0  0  0  0  0  0  0
    0.8813    2.6213    8.8549 N   0  0  0  0  0  0  0  0  0  0  0  0
    0.8604    1.4725    9.7549 C   0  0  0  0  0  0  0  0  0  0  0  0
    0.0950    1.8218   11.0300 C   0  0  0  0  0  0  0  0  0  0  0  0
    1.8983    2.4956    7.8550 C   0  0  0  0  0  0  0  0  0  0  0  0
    1.7515    3.4508    6.7312 C   0  0  0  0  0  0  0  0  0  0  0  0
    2.7804    4.2867    6.3537 C   0  0  0  0  0  0  0  0  0  0  0  0
    2.6327    5.1850    5.2910 C   0  0  0  0  0  0  0  0  0  0  0  0
    1.4487    5.2602    4.5877 C   0  0  0  0  0  0  0  0  0  0  0  0
    0.4276    4.4183    4.9759 C   0  0  0  0  0  0  0  0  0  0  0  0
    0.5654    3.5227    6.0305 C   0  0  0  0  0  0  0  0  0  0  0  0
  1  2  1  0
  2  3  2  0
  3  4  1  0
  4  5  2  0
  5  6  1  0
  6  7  1  0
  7  8  2  0
  8  9  1  0
  9 10  2  0
 10 11  1  0
 11 12  2  0
  4 13  1  0
  3 14  1  0
 14 15  2  3
 15 16  1  0
 16 17  1  0
 17 18  1  0
 18 19  1  0
 19 20  1  0
 20 21  1  0
 19 22  1  0
 22 23  1  0
 23 24  2  0
 24 25  1  0
 25 26  2  0
 26 27  1  0
 27 28  2  0
  6  2  1  0
 12  7  1  0
 21 16  1  0
 28 23  1  0
M  END
$$$$
