
     RDKit          3D

 28 31  0  0  0  0  0  0  0  0999 V2000
   -0.1152    2.0074    9.0824 C   0  0  0  0  0  0  0  0  0  0  0  0
    1.0866    2.7357    9.5673 C   0  0  0  0  0  0  0  0  0  0  0  0
    1.7125    2.6424   10.7869 C   0  0  0  0  0  0  0  0  0  0  0  0
    2.7743    3.5130   10.7492 C   0  0  0  0  0  0  0  0  0  0  0  0
    2.7574    4.0852    9.5497 N   0  0  0  0  0  0  0  0  0  0  0  0
    1.7503    3.6303    8.8261 N   0  0  0  0  0  0  0  0  0  0  0  0
    1.4137    4.0194    7.4766 C   0  0  0  0  0  0  0  0  0  0  0  0
    1.1485    5.3377    7.1593 C   0  0  0  0  0  0  0  0  0  0  0  0
    0.8368    5.6482    5.8740 C   0  0  0  0  0  0  0  0  0  0  0  0
    0.7783    4.6938    4.8870 C   0  0  0  0  0  0  0  0  0  0  0  0
    1.0480    3.3840    5.2322 C   0  0  0  0  0  0  0  0  0  0  0  0
    1.3693    3.0158    6.5213 C   0  0  0  0  0  0  0  0  0  0  0  0
    3.7627    3.7664   11.8547 C   0  0  0  0  0  0  0  0  0  0  0  0
    1.3232    1.7849   11.9003 C   0  0  0  0  0  0  0  0  0  0  0  0
    0.5141    2.1791   12.7989 N   0  0  0  0  0  0  0  0  0  0  0  0
    0.6308    1.7255   14.1137 N   0  0  0  0  0  0  0  0  0  0  0  0
    1.7237    0.8102   14.4748 C   0  0  0  0  0  0  0  0  0  0  0  0
    1.1038   -0.1929   15.4510 C   0  0  0  0  0  0  0  0  0  0  0  0
    0.7207    0.4523   16.6922 N   0  0  0  0  0  0  0  0  0  0  0  0
    0.4936    1.8789   16.4840 C   0  0  0  0  0  0  0  0  0  0  0  0
   -0.2722    2.1011   15.1810 C   0  0  0  0  0  0  0  0  0  0  0  0
    1.7546    0.2126   17.6532 C   0  0  0  0  0  0  0  0  0  0  0  0
    1.4600    0.7648   18.9969 C   0  0  0  0  0  0  0  0  0  0  0  0
    2.2984    1.6747   19.6043 C   0  0  0  0  0  0  0  0  0  0  0  0
    2.0118    2.1909   20.8729 C   0  0  0  0  0  0  0  0  0  0  0  0
    0.8776    1.8028   21.5548 C   0  0  0  0  0  0  0  0  0  0  0  0
    0.0475    0.8920   20.9356 C   0  0  0  0  0  0  0  0  0  0  0  0
    0.3244    0.3738   19.6754 C   0  0  0  0  0  0  0  0  0  0  0  0
  1  2  1  0
  2  3  2  0
  3  4  1  0
  4  5  2  0
  5  6  1  0
  6  7  1  0
  7  8  2  0
  8  9  1  0
  9 10  2  0
 10 11  1  0
 11 12  2  0
  4 13  1  0
  3 14  1  0
 14 15  2  3
 15 16  1  0
 16 17  1  0
 17 18  1  0
 18 19  1  0
 19 20  1  0
 20 21  1  0
 19 22  1  0
 22 23  1  0
 23 24  2  0
 24 25  1  0
 25 26  2  0
 26 27  1  0
 27 28  2  0
  6  2  1  0
 12  7  1  0
 21 16  1  0
 28 23  1  0
M  END
$$$$
