
     RDKit          3D

 28 31  0  0  0  0  0  0  0  0999 V2000
    0.4566    3.2215   17.4814 C   0  0  0  0  0  0  0  0  0  0  0  0
    1.2391    1.9577   17.4883 C   0  0  0  0  0  0  0  0  0  0  0  0
    1.9041    1.3544   16.4483 C   0  0  0  0  0  0  0  0  0  0  0  0
    2.4717    0.2118   16.9573 C   0  0  0  0  0  0  0  0  0  0  0  0
    2.1435    0.1621   18.2442 N   0  0  0  0  0  0  0  0  0  0  0  0
    1.4031    1.2029   18.5809 N   0  0  0  0  0  0  0  0  0  0  0  0
    0.8608    1.4880   19.8888 C   0  0  0  0  0  0  0  0  0  0  0  0
   -0.5005    1.4471   20.1212 C   0  0  0  0  0  0  0  0  0  0  0  0
   -0.9566    1.7241   21.3705 C   0  0  0  0  0  0  0  0  0  0  0  0
   -0.1072    2.0419   22.4030 C   0  0  0  0  0  0  0  0  0  0  0  0
    1.2488    2.0754   22.1425 C   0  0  0  0  0  0  0  0  0  0  0  0
    1.7633    1.8026   20.8930 C   0  0  0  0  0  0  0  0  0  0  0  0
    3.3035   -0.7873   16.2003 C   0  0  0  0  0  0  0  0  0  0  0  0
    1.9890    1.8366   15.0746 C   0  0  0  0  0  0  0  0  0  0  0  0
    1.1331    1.5060   14.1940 N   0  0  0  0  0  0  0  0  0  0  0  0
    1.2145    2.0090   12.8947 N   0  0  0  0  0  0  0  0  0  0  0  0
    2.5136    2.0433   12.2063 C   0  0  0  0  0  0  0  0  0  0  0  0
    2.5279    3.3669   11.4374 C   0  0  0  0  0  0  0  0  0  0  0  0
    1.5354    3.3690   10.3797 N   0  0  0  0  0  0  0  0  0  0  0  0
    0.4631    2.4243   10.6757 C   0  0  0  0  0  0  0  0  0  0  0  0
    0.0798    2.5151   12.1518 C   0  0  0  0  0  0  0  0  0  0  0  0
    2.1980    3.0539    9.1502 C   0  0  0  0  0  0  0  0  0  0  0  0
    1.4359    3.4516    7.9427 C   0  0  0  0  0  0  0  0  0  0  0  0
    1.0564    4.7588    7.7253 C   0  0  0  0  0  0  0  0  0  0  0  0
    0.3375    5.1250    6.5820 C   0  0  0  0  0  0  0  0  0  0  0  0
   -0.0135    4.1849    5.6359 C   0  0  0  0  0  0  0  0  0  0  0  0
    0.3724    2.8810    5.8659 C   0  0  0  0  0  0  0  0  0  0  0  0
    1.0869    2.5081    6.9989 C   0  0  0  0  0  0  0  0  0  0  0  0
  1  2  1  0
  2  3  2  0
  3  4  1  0
  4  5  2  0
  5  6  1  0
  6  7  1  0
  7  8  2  0
  8  9  1  0
  9 10  2  0
 10 11  1  0
 11 12  2  0
  4 13  1  0
  3 14  1  0
 14 15  2  3
 15 16  1  0
 16 17  1  0
 17 18  1  0
 18 19  1  0
 19 20  1  0
 20 21  1  0
 19 22  1  0
 22 23  1  0
 23 24  2  0
 24 25  1  0
 25 26  2  0
 26 27  1  0
 27 28  2  0
  6  2  1  0
 12  7  1  0
 21 16  1  0
 28 23  1  0
M  END
$$$$
