
     RDKit          3D

 28 31  0  0  0  0  0  0  0  0999 V2000
   -0.5145    1.8523   16.5756 C   0  0  0  0  0  0  0  0  0  0  0  0
    0.8103    1.3951   17.0711 C   0  0  0  0  0  0  0  0  0  0  0  0
    1.9342    1.0771   16.3475 C   0  0  0  0  0  0  0  0  0  0  0  0
    2.8955    0.7121   17.2581 C   0  0  0  0  0  0  0  0  0  0  0  0
    2.3418    0.8173   18.4618 N   0  0  0  0  0  0  0  0  0  0  0  0
    1.0893    1.2264   18.3688 N   0  0  0  0  0  0  0  0  0  0  0  0
    0.1737    1.4547   19.4622 C   0  0  0  0  0  0  0  0  0  0  0  0
   -0.3487    0.4010   20.1872 C   0  0  0  0  0  0  0  0  0  0  0  0
   -1.2059    0.6727   21.2055 C   0  0  0  0  0  0  0  0  0  0  0  0
   -1.5656    1.9580   21.5325 C   0  0  0  0  0  0  0  0  0  0  0  0
   -1.0284    2.9921   20.7912 C   0  0  0  0  0  0  0  0  0  0  0  0
   -0.1544    2.7709   19.7482 C   0  0  0  0  0  0  0  0  0  0  0  0
    4.3021    0.2779   16.9482 C   0  0  0  0  0  0  0  0  0  0  0  0
    2.0749    1.1209   14.8966 C   0  0  0  0  0  0  0  0  0  0  0  0
    2.4620    2.1707   14.2921 N   0  0  0  0  0  0  0  0  0  0  0  0
    2.6268    2.1770   12.9062 N   0  0  0  0  0  0  0  0  0  0  0  0
    2.3695    3.4099   12.1470 C   0  0  0  0  0  0  0  0  0  0  0  0
    1.6764    2.9542   10.8604 C   0  0  0  0  0  0  0  0  0  0  0  0
    2.5741    2.1748   10.0295 N   0  0  0  0  0  0  0  0  0  0  0  0
    3.6298    1.5702   10.8358 C   0  0  0  0  0  0  0  0  0  0  0  0
    3.0450    1.0240   12.1372 C   0  0  0  0  0  0  0  0  0  0  0  0
    3.1050    3.0394    9.0193 C   0  0  0  0  0  0  0  0  0  0  0  0
    2.0724    3.8278    8.3056 C   0  0  0  0  0  0  0  0  0  0  0  0
    0.7271    3.5879    8.4856 C   0  0  0  0  0  0  0  0  0  0  0  0
   -0.2406    4.3377    7.8079 C   0  0  0  0  0  0  0  0  0  0  0  0
    0.1251    5.3425    6.9368 C   0  0  0  0  0  0  0  0  0  0  0  0
    1.4743    5.5719    6.7661 C   0  0  0  0  0  0  0  0  0  0  0  0
    2.4427    4.8318    7.4352 C   0  0  0  0  0  0  0  0  0  0  0  0
  1  2  1  0
  2  3  2  0
  3  4  1  0
  4  5  2  0
  5  6  1  0
  6  7  1  0
  7  8  2  0
  8  9  1  0
  9 10  2  0
 10 11  1  0
 11 12  2  0
  4 13  1  0
  3 14  1  0
 14 15  2  3
 15 16  1  0
 16 17  1  0
 17 18  1  0
 18 19  1  0
 19 20  1  0
 20 21  1  0
 19 22  1  0
 22 23  1  0
 23 24  2  0
 24 25  1  0
 25 26  2  0
 26 27  1  0
 27 28  2  0
  6  2  1  0
 12  7  1  0
 21 16  1  0
 28 23  1  0
M  END
$$$$
