
     RDKit          3D

 28 31  0  0  0  0  0  0  0  0999 V2000
   -0.5824    1.5342   15.7452 C   0  0  0  0  0  0  0  0  0  0  0  0
    0.8877    1.5699   15.9625 C   0  0  0  0  0  0  0  0  0  0  0  0
    1.8920    1.6411   15.0275 C   0  0  0  0  0  0  0  0  0  0  0  0
    3.0756    1.6478   15.7244 C   0  0  0  0  0  0  0  0  0  0  0  0
    2.7606    1.5826   17.0140 N   0  0  0  0  0  0  0  0  0  0  0  0
    1.4505    1.5352   17.1760 N   0  0  0  0  0  0  0  0  0  0  0  0
    0.7393    1.4592   18.4306 C   0  0  0  0  0  0  0  0  0  0  0  0
   -0.1777    2.4279   18.7908 C   0  0  0  0  0  0  0  0  0  0  0  0
   -0.8182    2.3074   19.9827 C   0  0  0  0  0  0  0  0  0  0  0  0
   -0.5812    1.2556   20.8347 C   0  0  0  0  0  0  0  0  0  0  0  0
    0.3404    0.3017   20.4495 C   0  0  0  0  0  0  0  0  0  0  0  0
    1.0175    0.3769   19.2510 C   0  0  0  0  0  0  0  0  0  0  0  0
    4.4589    1.7157   15.1371 C   0  0  0  0  0  0  0  0  0  0  0  0
    1.7288    1.6992   13.5795 C   0  0  0  0  0  0  0  0  0  0  0  0
    1.3429    2.7582   12.9903 N   0  0  0  0  0  0  0  0  0  0  0  0
    1.6855    3.0001   11.6592 N   0  0  0  0  0  0  0  0  0  0  0  0
    0.7555    3.7353   10.7890 C   0  0  0  0  0  0  0  0  0  0  0  0
    0.8345    3.0343    9.4305 C   0  0  0  0  0  0  0  0  0  0  0  0
    2.1413    3.2090    8.8260 N   0  0  0  0  0  0  0  0  0  0  0  0
    3.1504    3.4766    9.8460 C   0  0  0  0  0  0  0  0  0  0  0  0
    2.9269    2.5673   11.0530 C   0  0  0  0  0  0  0  0  0  0  0  0
    2.0503    4.2752    7.8748 C   0  0  0  0  0  0  0  0  0  0  0  0
    1.1923    3.9618    6.7075 C   0  0  0  0  0  0  0  0  0  0  0  0
    1.6214    3.1265    5.6984 C   0  0  0  0  0  0  0  0  0  0  0  0
    0.8041    2.8359    4.6004 C   0  0  0  0  0  0  0  0  0  0  0  0
   -0.4593    3.3789    4.4956 C   0  0  0  0  0  0  0  0  0  0  0  0
   -0.8759    4.2129    5.5120 C   0  0  0  0  0  0  0  0  0  0  0  0
   -0.0707    4.5072    6.6066 C   0  0  0  0  0  0  0  0  0  0  0  0
  1  2  1  0
  2  3  2  0
  3  4  1  0
  4  5  2  0
  5  6  1  0
  6  7  1  0
  7  8  2  0
  8  9  1  0
  9 10  2  0
 10 11  1  0
 11 12  2  0
  4 13  1  0
  3 14  1  0
 14 15  2  3
 15 16  1  0
 16 17  1  0
 17 18  1  0
 18 19  1  0
 19 20  1  0
 20 21  1  0
 19 22  1  0
 22 23  1  0
 23 24  2  0
 24 25  1  0
 25 26  2  0
 26 27  1  0
 27 28  2  0
  6  2  1  0
 12  7  1  0
 21 16  1  0
 28 23  1  0
M  END
$$$$
