
     RDKit          3D

 28 31  0  0  0  0  0  0  0  0999 V2000
    2.1726   -0.9740   15.3943 C   0  0  0  0  0  0  0  0  0  0  0  0
    1.5043    0.3521   15.4625 C   0  0  0  0  0  0  0  0  0  0  0  0
    0.9542    1.0893   14.4419 C   0  0  0  0  0  0  0  0  0  0  0  0
    0.4608    2.2380   15.0109 C   0  0  0  0  0  0  0  0  0  0  0  0
    0.7191    2.1616   16.3124 N   0  0  0  0  0  0  0  0  0  0  0  0
    1.3456    1.0353   16.6019 N   0  0  0  0  0  0  0  0  0  0  0  0
    1.7862    0.6054   17.9084 C   0  0  0  0  0  0  0  0  0  0  0  0
    3.1233    0.3771   18.1710 C   0  0  0  0  0  0  0  0  0  0  0  0
    3.4826   -0.0264   19.4174 C   0  0  0  0  0  0  0  0  0  0  0  0
    2.5593   -0.2126   20.4180 C   0  0  0  0  0  0  0  0  0  0  0  0
    1.2297    0.0229   20.1278 C   0  0  0  0  0  0  0  0  0  0  0  0
    0.8122    0.4334   18.8797 C   0  0  0  0  0  0  0  0  0  0  0  0
   -0.2366    3.3625   14.2951 C   0  0  0  0  0  0  0  0  0  0  0  0
    0.9051    0.7204   13.0318 C   0  0  0  0  0  0  0  0  0  0  0  0
    1.8253    1.0530   12.2194 N   0  0  0  0  0  0  0  0  0  0  0  0
    1.5232    1.7276   11.0355 N   0  0  0  0  0  0  0  0  0  0  0  0
    1.1803    3.1571   11.0781 C   0  0  0  0  0  0  0  0  0  0  0  0
    0.0521    3.3317   10.0582 C   0  0  0  0  0  0  0  0  0  0  0  0
    0.5248    3.0928    8.7080 N   0  0  0  0  0  0  0  0  0  0  0  0
    1.7064    2.2362    8.7185 C   0  0  0  0  0  0  0  0  0  0  0  0
    1.5224    1.1050    9.7286 C   0  0  0  0  0  0  0  0  0  0  0  0
    0.7927    4.3619    8.1017 C   0  0  0  0  0  0  0  0  0  0  0  0
    1.0873    4.2799    6.6513 C   0  0  0  0  0  0  0  0  0  0  0  0
    0.2809    3.5686    5.7889 C   0  0  0  0  0  0  0  0  0  0  0  0
    0.5667    3.4974    4.4209 C   0  0  0  0  0  0  0  0  0  0  0  0
    1.6676    4.1393    3.8939 C   0  0  0  0  0  0  0  0  0  0  0  0
    2.4659    4.8473    4.7678 C   0  0  0  0  0  0  0  0  0  0  0  0
    2.1896    4.9235    6.1284 C   0  0  0  0  0  0  0  0  0  0  0  0
  1  2  1  0
  2  3  2  0
  3  4  1  0
  4  5  2  0
  5  6  1  0
  6  7  1  0
  7  8  2  0
  8  9  1  0
  9 10  2  0
 10 11  1  0
 11 12  2  0
  4 13  1  0
  3 14  1  0
 14 15  2  3
 15 16  1  0
 16 17  1  0
 17 18  1  0
 18 19  1  0
 19 20  1  0
 20 21  1  0
 19 22  1  0
 22 23  1  0
 23 24  2  0
 24 25  1  0
 25 26  2  0
 26 27  1  0
 27 28  2  0
  6  2  1  0
 12  7  1  0
 21 16  1  0
 28 23  1  0
M  END
$$$$
