
     RDKit          3D

 28 31  0  0  0  0  0  0  0  0999 V2000
    3.1509    1.3564   15.7433 C   0  0  0  0  0  0  0  0  0  0  0  0
    1.6793    1.1521   15.6937 C   0  0  0  0  0  0  0  0  0  0  0  0
    0.8383    1.2285   14.6100 C   0  0  0  0  0  0  0  0  0  0  0  0
   -0.4256    0.9594   15.0758 C   0  0  0  0  0  0  0  0  0  0  0  0
   -0.3127    0.7366   16.3812 N   0  0  0  0  0  0  0  0  0  0  0  0
    0.9448    0.8480   16.7701 N   0  0  0  0  0  0  0  0  0  0  0  0
    1.4506    0.6758   18.1118 C   0  0  0  0  0  0  0  0  0  0  0  0
    1.0787    1.5324   19.1300 C   0  0  0  0  0  0  0  0  0  0  0  0
    1.5846    1.3245   20.3735 C   0  0  0  0  0  0  0  0  0  0  0  0
    2.4505    0.2927   20.6452 C   0  0  0  0  0  0  0  0  0  0  0  0
    2.8054   -0.5484   19.6088 C   0  0  0  0  0  0  0  0  0  0  0  0
    2.3206   -0.3814   18.3290 C   0  0  0  0  0  0  0  0  0  0  0  0
   -1.6902    0.9248   14.2618 C   0  0  0  0  0  0  0  0  0  0  0  0
    1.2175    1.5345   13.2354 C   0  0  0  0  0  0  0  0  0  0  0  0
    0.8569    2.6124   12.6648 N   0  0  0  0  0  0  0  0  0  0  0  0
    1.2197    2.8767   11.3433 N   0  0  0  0  0  0  0  0  0  0  0  0
    1.8046    1.8076   10.5201 C   0  0  0  0  0  0  0  0  0  0  0  0
    2.9016    2.4870    9.6965 C   0  0  0  0  0  0  0  0  0  0  0  0
    2.3379    3.4315    8.7510 N   0  0  0  0  0  0  0  0  0  0  0  0
    1.0283    3.8929    9.2005 C   0  0  0  0  0  0  0  0  0  0  0  0
    1.0580    4.1652   10.7034 C   0  0  0  0  0  0  0  0  0  0  0  0
    2.2664    2.7896    7.4732 C   0  0  0  0  0  0  0  0  0  0  0  0
    1.5300    3.5725    6.4525 C   0  0  0  0  0  0  0  0  0  0  0  0
    1.3546    4.9342    6.5738 C   0  0  0  0  0  0  0  0  0  0  0  0
    0.6583    5.6652    5.6047 C   0  0  0  0  0  0  0  0  0  0  0  0
    0.1253    5.0418    4.4960 C   0  0  0  0  0  0  0  0  0  0  0  0
    0.3081    3.6791    4.3872 C   0  0  0  0  0  0  0  0  0  0  0  0
    0.9985    2.9448    5.3451 C   0  0  0  0  0  0  0  0  0  0  0  0
  1  2  1  0
  2  3  2  0
  3  4  1  0
  4  5  2  0
  5  6  1  0
  6  7  1  0
  7  8  2  0
  8  9  1  0
  9 10  2  0
 10 11  1  0
 11 12  2  0
  4 13  1  0
  3 14  1  0
 14 15  2  3
 15 16  1  0
 16 17  1  0
 17 18  1  0
 18 19  1  0
 19 20  1  0
 20 21  1  0
 19 22  1  0
 22 23  1  0
 23 24  2  0
 24 25  1  0
 25 26  2  0
 26 27  1  0
 27 28  2  0
  6  2  1  0
 12  7  1  0
 21 16  1  0
 28 23  1  0
M  END
$$$$
