
     RDKit          3D

 28 31  0  0  0  0  0  0  0  0999 V2000
   -0.4159    2.7920    8.3715 C   0  0  0  0  0  0  0  0  0  0  0  0
    0.8250    3.5582    8.0839 C   0  0  0  0  0  0  0  0  0  0  0  0
    1.8222    3.9337    8.9513 C   0  0  0  0  0  0  0  0  0  0  0  0
    2.7495    4.6215    8.2071 C   0  0  0  0  0  0  0  0  0  0  0  0
    2.2993    4.6395    6.9567 N   0  0  0  0  0  0  0  0  0  0  0  0
    1.1443    4.0054    6.8639 N   0  0  0  0  0  0  0  0  0  0  0  0
    0.3563    3.8203    5.6678 C   0  0  0  0  0  0  0  0  0  0  0  0
   -0.3607    4.8651    5.1170 C   0  0  0  0  0  0  0  0  0  0  0  0
   -1.0854    4.6355    3.9911 C   0  0  0  0  0  0  0  0  0  0  0  0
   -1.1249    3.4011    3.3885 C   0  0  0  0  0  0  0  0  0  0  0  0
   -0.3987    2.3749    3.9604 C   0  0  0  0  0  0  0  0  0  0  0  0
    0.3527    2.5547    5.1021 C   0  0  0  0  0  0  0  0  0  0  0  0
    4.0265    5.2343    8.7140 C   0  0  0  0  0  0  0  0  0  0  0  0
    1.8813    3.6538   10.3813 C   0  0  0  0  0  0  0  0  0  0  0  0
    1.9465    2.4654   10.8296 N   0  0  0  0  0  0  0  0  0  0  0  0
    1.7443    2.2015   12.1851 N   0  0  0  0  0  0  0  0  0  0  0  0
    0.4436    2.5044   12.8008 C   0  0  0  0  0  0  0  0  0  0  0  0
    0.7738    3.0619   14.1877 C   0  0  0  0  0  0  0  0  0  0  0  0
    1.3685    2.0446   15.0333 N   0  0  0  0  0  0  0  0  0  0  0  0
    1.9962    1.0037   14.2254 C   0  0  0  0  0  0  0  0  0  0  0  0
    2.7514    1.6341   13.0566 C   0  0  0  0  0  0  0  0  0  0  0  0
    0.3411    1.5153   15.8784 C   0  0  0  0  0  0  0  0  0  0  0  0
    0.8576    0.7521   17.0393 C   0  0  0  0  0  0  0  0  0  0  0  0
    0.3635    0.9481   18.3111 C   0  0  0  0  0  0  0  0  0  0  0  0
    0.8571    0.2224   19.4010 C   0  0  0  0  0  0  0  0  0  0  0  0
    1.8561   -0.7135   19.2336 C   0  0  0  0  0  0  0  0  0  0  0  0
    2.3413   -0.8996   17.9561 C   0  0  0  0  0  0  0  0  0  0  0  0
    1.8569   -0.1831   16.8674 C   0  0  0  0  0  0  0  0  0  0  0  0
  1  2  1  0
  2  3  2  0
  3  4  1  0
  4  5  2  0
  5  6  1  0
  6  7  1  0
  7  8  2  0
  8  9  1  0
  9 10  2  0
 10 11  1  0
 11 12  2  0
  4 13  1  0
  3 14  1  0
 14 15  2  3
 15 16  1  0
 16 17  1  0
 17 18  1  0
 18 19  1  0
 19 20  1  0
 20 21  1  0
 19 22  1  0
 22 23  1  0
 23 24  2  0
 24 25  1  0
 25 26  2  0
 26 27  1  0
 27 28  2  0
  6  2  1  0
 12  7  1  0
 21 16  1  0
 28 23  1  0
M  END
$$$$
