
     RDKit          3D

 28 31  0  0  0  0  0  0  0  0999 V2000
   -0.9892    2.9982    7.8267 C   0  0  0  0  0  0  0  0  0  0  0  0
    0.3022    3.6468    7.4787 C   0  0  0  0  0  0  0  0  0  0  0  0
    1.4290    3.7854    8.2526 C   0  0  0  0  0  0  0  0  0  0  0  0
    2.3511    4.4539    7.4848 C   0  0  0  0  0  0  0  0  0  0  0  0
    1.7729    4.6902    6.3116 N   0  0  0  0  0  0  0  0  0  0  0  0
    0.5417    4.2123    6.2898 N   0  0  0  0  0  0  0  0  0  0  0  0
   -0.3900    4.2806    5.1884 C   0  0  0  0  0  0  0  0  0  0  0  0
   -1.4559    5.1594    5.2090 C   0  0  0  0  0  0  0  0  0  0  0  0
   -2.3020    5.1821    4.1464 C   0  0  0  0  0  0  0  0  0  0  0  0
   -2.1284    4.3606    3.0585 C   0  0  0  0  0  0  0  0  0  0  0  0
   -1.0546    3.4920    3.0644 C   0  0  0  0  0  0  0  0  0  0  0  0
   -0.1668    3.4293    4.1173 C   0  0  0  0  0  0  0  0  0  0  0  0
    3.7451    4.8416    7.8967 C   0  0  0  0  0  0  0  0  0  0  0  0
    1.6072    3.3129    9.6207 C   0  0  0  0  0  0  0  0  0  0  0  0
    1.9337    2.1108    9.8775 N   0  0  0  0  0  0  0  0  0  0  0  0
    2.0591    1.6711   11.1961 N   0  0  0  0  0  0  0  0  0  0  0  0
    0.9235    1.8057   12.1207 C   0  0  0  0  0  0  0  0  0  0  0  0
    1.5407    2.2127   13.4611 C   0  0  0  0  0  0  0  0  0  0  0  0
    2.3543    1.1443   14.0092 N   0  0  0  0  0  0  0  0  0  0  0  0
    2.8211    0.2553   12.9499 C   0  0  0  0  0  0  0  0  0  0  0  0
    3.2616    1.0738   11.7376 C   0  0  0  0  0  0  0  0  0  0  0  0
    1.5707    0.4461   14.9831 C   0  0  0  0  0  0  0  0  0  0  0  0
    1.3017    1.2346   16.2091 C   0  0  0  0  0  0  0  0  0  0  0  0
    0.0314    1.6641   16.5281 C   0  0  0  0  0  0  0  0  0  0  0  0
   -0.2131    2.4076   17.6880 C   0  0  0  0  0  0  0  0  0  0  0  0
    0.8139    2.7334   18.5490 C   0  0  0  0  0  0  0  0  0  0  0  0
    2.0797    2.2973   18.2178 C   0  0  0  0  0  0  0  0  0  0  0  0
    2.3319    1.5582   17.0674 C   0  0  0  0  0  0  0  0  0  0  0  0
  1  2  1  0
  2  3  2  0
  3  4  1  0
  4  5  2  0
  5  6  1  0
  6  7  1  0
  7  8  2  0
  8  9  1  0
  9 10  2  0
 10 11  1  0
 11 12  2  0
  4 13  1  0
  3 14  1  0
 14 15  2  3
 15 16  1  0
 16 17  1  0
 17 18  1  0
 18 19  1  0
 19 20  1  0
 20 21  1  0
 19 22  1  0
 22 23  1  0
 23 24  2  0
 24 25  1  0
 25 26  2  0
 26 27  1  0
 27 28  2  0
  6  2  1  0
 12  7  1  0
 21 16  1  0
 28 23  1  0
M  END
$$$$
