
     RDKit          3D

 28 31  0  0  0  0  0  0  0  0999 V2000
    2.2713   -0.4421   16.0182 C   0  0  0  0  0  0  0  0  0  0  0  0
    1.7807    0.9603   15.9703 C   0  0  0  0  0  0  0  0  0  0  0  0
    1.4179    1.7056   14.8746 C   0  0  0  0  0  0  0  0  0  0  0  0
    1.0358    2.9371   15.3482 C   0  0  0  0  0  0  0  0  0  0  0  0
    1.1747    2.8987   16.6695 N   0  0  0  0  0  0  0  0  0  0  0  0
    1.6213    1.7188   17.0611 N   0  0  0  0  0  0  0  0  0  0  0  0
    1.8933    1.3072   18.4184 C   0  0  0  0  0  0  0  0  0  0  0  0
    3.1852    1.0686   18.8463 C   0  0  0  0  0  0  0  0  0  0  0  0
    3.3842    0.6834   20.1337 C   0  0  0  0  0  0  0  0  0  0  0  0
    2.3431    0.5253   21.0167 C   0  0  0  0  0  0  0  0  0  0  0  0
    1.0622    0.7705   20.5622 C   0  0  0  0  0  0  0  0  0  0  0  0
    0.8057    1.1635   19.2659 C   0  0  0  0  0  0  0  0  0  0  0  0
    0.5538    4.1012   14.5263 C   0  0  0  0  0  0  0  0  0  0  0  0
    1.4355    1.2704   13.4829 C   0  0  0  0  0  0  0  0  0  0  0  0
    2.0653    1.9163   12.5864 N   0  0  0  0  0  0  0  0  0  0  0  0
    1.5084    2.1097   11.3214 N   0  0  0  0  0  0  0  0  0  0  0  0
    2.3864    2.3643   10.1694 C   0  0  0  0  0  0  0  0  0  0  0  0
    1.6594    3.4212    9.3340 C   0  0  0  0  0  0  0  0  0  0  0  0
    0.4335    2.8904    8.7693 N   0  0  0  0  0  0  0  0  0  0  0  0
   -0.0563    1.7671    9.5621 C   0  0  0  0  0  0  0  0  0  0  0  0
    0.0866    2.0771   11.0511 C   0  0  0  0  0  0  0  0  0  0  0  0
    0.6982    2.5104    7.4145 C   0  0  0  0  0  0  0  0  0  0  0  0
    1.1745    3.6269    6.5639 C   0  0  0  0  0  0  0  0  0  0  0  0
    0.4917    4.8220    6.4904 C   0  0  0  0  0  0  0  0  0  0  0  0
    0.9494    5.8707    5.6849 C   0  0  0  0  0  0  0  0  0  0  0  0
    2.1013    5.7384    4.9383 C   0  0  0  0  0  0  0  0  0  0  0  0
    2.7746    4.5376    5.0210 C   0  0  0  0  0  0  0  0  0  0  0  0
    2.3273    3.4902    5.8187 C   0  0  0  0  0  0  0  0  0  0  0  0
  1  2  1  0
  2  3  2  0
  3  4  1  0
  4  5  2  0
  5  6  1  0
  6  7  1  0
  7  8  2  0
  8  9  1  0
  9 10  2  0
 10 11  1  0
 11 12  2  0
  4 13  1  0
  3 14  1  0
 14 15  2  3
 15 16  1  0
 16 17  1  0
 17 18  1  0
 18 19  1  0
 19 20  1  0
 20 21  1  0
 19 22  1  0
 22 23  1  0
 23 24  2  0
 24 25  1  0
 25 26  2  0
 26 27  1  0
 27 28  2  0
  6  2  1  0
 12  7  1  0
 21 16  1  0
 28 23  1  0
M  END
$$$$
