
     RDKit          3D

 28 31  0  0  0  0  0  0  0  0999 V2000
    0.3564    0.0324   15.9750 C   0  0  0  0  0  0  0  0  0  0  0  0
    1.1244    1.2462   16.3580 C   0  0  0  0  0  0  0  0  0  0  0  0
    1.7308    2.1708   15.5425 C   0  0  0  0  0  0  0  0  0  0  0  0
    2.3094    3.1023   16.3699 C   0  0  0  0  0  0  0  0  0  0  0  0
    2.0437    2.7245   17.6161 N   0  0  0  0  0  0  0  0  0  0  0  0
    1.3327    1.6113   17.6283 N   0  0  0  0  0  0  0  0  0  0  0  0
    0.8584    0.9042   18.7949 C   0  0  0  0  0  0  0  0  0  0  0  0
   -0.4553    1.0116   19.2092 C   0  0  0  0  0  0  0  0  0  0  0  0
   -0.8481    0.3249   20.3135 C   0  0  0  0  0  0  0  0  0  0  0  0
    0.0190   -0.4685   21.0256 C   0  0  0  0  0  0  0  0  0  0  0  0
    1.3263   -0.5576   20.5890 C   0  0  0  0  0  0  0  0  0  0  0  0
    1.7760    0.1185   19.4749 C   0  0  0  0  0  0  0  0  0  0  0  0
    3.0917    4.3143   15.9431 C   0  0  0  0  0  0  0  0  0  0  0  0
    1.7527    2.1620   14.0844 C   0  0  0  0  0  0  0  0  0  0  0  0
    1.2850    3.1274   13.4011 N   0  0  0  0  0  0  0  0  0  0  0  0
    1.4449    3.1647   12.0152 N   0  0  0  0  0  0  0  0  0  0  0  0
    2.0639    2.0251   11.3218 C   0  0  0  0  0  0  0  0  0  0  0  0
    2.9505    2.6450   10.2387 C   0  0  0  0  0  0  0  0  0  0  0  0
    2.1534    3.3177    9.2308 N   0  0  0  0  0  0  0  0  0  0  0  0
    0.8581    3.7124    9.7754 C   0  0  0  0  0  0  0  0  0  0  0  0
    1.0339    4.2766   11.1842 C   0  0  0  0  0  0  0  0  0  0  0  0
    2.0138    2.4331    8.1137 C   0  0  0  0  0  0  0  0  0  0  0  0
    1.4474    3.0808    6.9067 C   0  0  0  0  0  0  0  0  0  0  0  0
    1.7550    4.3824    6.5731 C   0  0  0  0  0  0  0  0  0  0  0  0
    1.2158    4.9854    5.4312 C   0  0  0  0  0  0  0  0  0  0  0  0
    0.3578    4.2922    4.6034 C   0  0  0  0  0  0  0  0  0  0  0  0
    0.0585    2.9910    4.9490 C   0  0  0  0  0  0  0  0  0  0  0  0
    0.5896    2.3838    6.0815 C   0  0  0  0  0  0  0  0  0  0  0  0
  1  2  1  0
  2  3  2  0
  3  4  1  0
  4  5  2  0
  5  6  1  0
  6  7  1  0
  7  8  2  0
  8  9  1  0
  9 10  2  0
 10 11  1  0
 11 12  2  0
  4 13  1  0
  3 14  1  0
 14 15  2  3
 15 16  1  0
 16 17  1  0
 17 18  1  0
 18 19  1  0
 19 20  1  0
 20 21  1  0
 19 22  1  0
 22 23  1  0
 23 24  2  0
 24 25  1  0
 25 26  2  0
 26 27  1  0
 27 28  2  0
  6  2  1  0
 12  7  1  0
 21 16  1  0
 28 23  1  0
M  END
$$$$
