
     RDKit          3D

 37 40  0  0  0  0  0  0  0  0999 V2000
  -12.5376  -12.5944   -1.5888 C   0  0  0  0  0  0  0  0  0  0  0  0
  -11.7831  -12.5347   -2.8964 C   0  0  0  0  0  0  0  0  0  0  0  0
  -12.7410  -12.2432   -4.0321 C   0  0  0  0  0  0  0  0  0  0  0  0
  -11.7562  -11.2231   -4.5489 C   0  0  0  0  0  0  0  0  0  0  0  0
  -11.0978  -11.2359   -3.1858 C   0  0  0  0  0  0  0  0  0  0  0  0
  -12.3792   -9.8881   -4.9171 C   0  0  0  0  0  0  0  0  0  0  0  0
  -12.2770   -9.6810   -6.3634 C   0  0  0  0  0  0  0  0  0  0  0  0
  -11.0650   -9.7067   -7.0215 C   0  0  0  0  0  0  0  0  0  0  0  0
  -11.0097   -9.4980   -8.3814 C   0  0  0  0  0  0  0  0  0  0  0  0
  -12.1684   -9.2561   -9.1305 C   0  0  0  0  0  0  0  0  0  0  0  0
  -13.3826   -9.2294   -8.4778 C   0  0  0  0  0  0  0  0  0  0  0  0
  -13.4192   -9.4433   -7.0969 C   0  0  0  0  0  0  0  0  0  0  0  0
  -12.0627   -9.0414  -10.5627 C   0  0  0  0  0  0  0  0  0  0  0  0
  -13.0718   -8.7069  -11.2248 O   0  0  0  0  0  0  0  0  0  0  0  0
  -10.8328   -9.2005  -11.2512 N   0  0  0  0  0  0  0  0  0  0  0  0
  -10.7662   -8.9947  -12.6912 C   0  0  0  0  0  0  0  0  0  0  0  0
  -11.2577  -10.2332  -13.3751 C   0  0  0  0  0  0  0  0  0  0  0  0
  -10.3851  -11.4010  -13.1281 C   0  0  0  0  0  0  0  0  0  0  0  0
  -10.7102  -12.3341  -12.3670 O   0  0  0  0  0  0  0  0  0  0  0  0
   -9.1604  -11.4591  -13.7671 O   0  0  0  0  0  0  0  0  0  0  0  0
  -13.6974   -9.7405   -4.3674 N   0  0  0  0  0  0  0  0  0  0  0  0
  -14.2643   -8.6033   -3.8052 C   0  0  0  0  0  0  0  0  0  0  0  0
  -13.5263   -7.4403   -3.6332 C   0  0  0  0  0  0  0  0  0  0  0  0
  -14.0183   -6.3277   -3.1052 N   0  0  0  0  0  0  0  0  0  0  0  0
  -15.2999   -6.2504   -2.6901 C   0  0  0  0  0  0  0  0  0  0  0  0
  -16.0643   -7.3886   -2.8457 C   0  0  0  0  0  0  0  0  0  0  0  0
  -15.5682   -8.5488   -3.3912 C   0  0  0  0  0  0  0  0  0  0  0  0
  -15.8472   -5.0571   -2.1178 N   0  0  0  0  0  0  0  0  0  0  0  0
  -15.1853   -3.9385   -1.7515 C   0  0  0  0  0  0  0  0  0  0  0  0
  -16.0701   -3.0154   -1.2420 C   0  0  0  0  0  0  0  0  0  0  0  0
  -17.2838   -3.5822   -1.3004 N   0  0  0  0  0  0  0  0  0  0  0  0
  -17.1415   -4.8212   -1.8330 C   0  0  0  0  0  0  0  0  0  0  0  0
  -15.7879   -1.6516   -0.7193 C   0  0  0  0  0  0  0  0  0  0  0  0
  -15.7889   -1.6317    0.6756 F   0  0  0  0  0  0  0  0  0  0  0  0
  -14.5962   -1.1766   -1.2081 F   0  0  0  0  0  0  0  0  0  0  0  0
  -16.8048   -0.8290   -1.1522 F   0  0  0  0  0  0  0  0  0  0  0  0
  -10.8728  -13.7105   -3.1430 C   0  0  0  0  0  0  0  0  0  0  0  0
  1  2  1  0
  2  3  1  0
  3  4  1  0
  4  5  1  0
  4  6  1  0
  6  7  1  0
  7  8  2  0
  8  9  1  0
  9 10  2  0
 10 11  1  0
 11 12  2  0
 10 13  1  0
 13 14  2  0
 13 15  1  0
 15 16  1  0
 16 17  1  0
 17 18  1  0
 18 19  2  0
 18 20  1  0
  6 21  1  0
 21 22  1  0
 22 23  2  0
 23 24  1  0
 24 25  2  0
 25 26  1  0
 26 27  2  0
 25 28  1  0
 28 29  1  0
 29 30  2  0
 30 31  1  0
 31 32  2  0
 30 33  1  0
 33 34  1  0
 33 35  1  0
 33 36  1  0
  2 37  1  0
  5  2  1  0
 12  7  1  0
 27 22  1  0
 32 28  1  0
M  END
$$$$
