
     RDKit          3D

 37 40  0  0  0  0  0  0  0  0999 V2000
   -4.9351  -10.9987  -13.2239 C   0  0  0  0  0  0  0  0  0  0  0  0
   -5.6204  -10.9052  -11.8806 C   0  0  0  0  0  0  0  0  0  0  0  0
   -6.6900   -9.8343  -11.9204 C   0  0  0  0  0  0  0  0  0  0  0  0
   -7.6241  -10.7967  -11.2284 C   0  0  0  0  0  0  0  0  0  0  0  0
   -6.6928  -11.9196  -11.6329 C   0  0  0  0  0  0  0  0  0  0  0  0
   -9.0031  -10.8862  -11.8581 C   0  0  0  0  0  0  0  0  0  0  0  0
   -9.6224  -12.1653  -11.5035 C   0  0  0  0  0  0  0  0  0  0  0  0
   -8.9751  -13.3683  -11.6938 C   0  0  0  0  0  0  0  0  0  0  0  0
   -9.5951  -14.5505  -11.3562 C   0  0  0  0  0  0  0  0  0  0  0  0
  -10.8871  -14.5686  -10.8154 C   0  0  0  0  0  0  0  0  0  0  0  0
  -11.5389  -13.3689  -10.6230 C   0  0  0  0  0  0  0  0  0  0  0  0
  -10.8937  -12.1789  -10.9717 C   0  0  0  0  0  0  0  0  0  0  0  0
  -11.5023  -15.8388  -10.4740 C   0  0  0  0  0  0  0  0  0  0  0  0
  -10.7983  -16.8685  -10.3614 O   0  0  0  0  0  0  0  0  0  0  0  0
  -12.8995  -15.9562  -10.2595 N   0  0  0  0  0  0  0  0  0  0  0  0
  -13.4147  -16.9072   -9.2846 C   0  0  0  0  0  0  0  0  0  0  0  0
  -12.6448  -18.1859   -9.4100 C   0  0  0  0  0  0  0  0  0  0  0  0
  -13.3757  -19.2140  -10.1813 C   0  0  0  0  0  0  0  0  0  0  0  0
  -12.8011  -20.0199  -10.9401 O   0  0  0  0  0  0  0  0  0  0  0  0
  -14.7508  -19.2830  -10.0550 O   0  0  0  0  0  0  0  0  0  0  0  0
   -9.7967   -9.7221  -11.5814 N   0  0  0  0  0  0  0  0  0  0  0  0
  -10.8168   -9.1821  -12.3549 C   0  0  0  0  0  0  0  0  0  0  0  0
  -11.2047   -9.7729  -13.5497 C   0  0  0  0  0  0  0  0  0  0  0  0
  -12.1725   -9.3010  -14.3240 N   0  0  0  0  0  0  0  0  0  0  0  0
  -12.8610   -8.1884  -13.9939 C   0  0  0  0  0  0  0  0  0  0  0  0
  -12.5024   -7.5738  -12.8117 C   0  0  0  0  0  0  0  0  0  0  0  0
  -11.5017   -8.0512  -11.9990 C   0  0  0  0  0  0  0  0  0  0  0  0
  -13.9087   -7.6653  -14.8184 N   0  0  0  0  0  0  0  0  0  0  0  0
  -15.0041   -6.9802  -14.4256 C   0  0  0  0  0  0  0  0  0  0  0  0
  -15.7701   -6.6520  -15.5211 C   0  0  0  0  0  0  0  0  0  0  0  0
  -15.1303   -7.1448  -16.5914 N   0  0  0  0  0  0  0  0  0  0  0  0
  -14.0014   -7.7585  -16.1580 C   0  0  0  0  0  0  0  0  0  0  0  0
  -17.0550   -5.9037  -15.5629 C   0  0  0  0  0  0  0  0  0  0  0  0
  -16.8672   -4.5961  -16.0113 F   0  0  0  0  0  0  0  0  0  0  0  0
  -17.9759   -6.5550  -16.3454 F   0  0  0  0  0  0  0  0  0  0  0  0
  -17.5340   -5.8409  -14.2725 F   0  0  0  0  0  0  0  0  0  0  0  0
   -4.6789  -10.7941  -10.7089 C   0  0  0  0  0  0  0  0  0  0  0  0
  1  2  1  0
  2  3  1  0
  3  4  1  0
  4  5  1  0
  4  6  1  0
  6  7  1  0
  7  8  2  0
  8  9  1  0
  9 10  2  0
 10 11  1  0
 11 12  2  0
 10 13  1  0
 13 14  2  0
 13 15  1  0
 15 16  1  0
 16 17  1  0
 17 18  1  0
 18 19  2  0
 18 20  1  0
  6 21  1  0
 21 22  1  0
 22 23  2  0
 23 24  1  0
 24 25  2  0
 25 26  1  0
 26 27  2  0
 25 28  1  0
 28 29  1  0
 29 30  2  0
 30 31  1  0
 31 32  2  0
 30 33  1  0
 33 34  1  0
 33 35  1  0
 33 36  1  0
  2 37  1  0
  5  2  1  0
 12  7  1  0
 27 22  1  0
 32 28  1  0
M  END
$$$$
