
     RDKit          3D

 37 40  0  0  0  0  0  0  0  0999 V2000
    1.0720    3.4039    9.1379 C   0  0  0  0  0  0  0  0  0  0  0  0
    1.1421    2.5789   10.4017 C   0  0  0  0  0  0  0  0  0  0  0  0
   -0.1356    2.7436   11.1971 C   0  0  0  0  0  0  0  0  0  0  0  0
   -0.1605    1.2474   11.3926 C   0  0  0  0  0  0  0  0  0  0  0  0
    0.8157    1.1270   10.2418 C   0  0  0  0  0  0  0  0  0  0  0  0
   -1.5105    0.6072   11.1216 C   0  0  0  0  0  0  0  0  0  0  0  0
   -2.5567    1.6315   11.1631 C   0  0  0  0  0  0  0  0  0  0  0  0
   -2.2887    2.9356   11.5237 C   0  0  0  0  0  0  0  0  0  0  0  0
   -3.3017    3.8674   11.5596 C   0  0  0  0  0  0  0  0  0  0  0  0
   -4.6206    3.5247   11.2349 C   0  0  0  0  0  0  0  0  0  0  0  0
   -4.8942    2.2225   10.8736 C   0  0  0  0  0  0  0  0  0  0  0  0
   -3.8529    1.2904   10.8429 C   0  0  0  0  0  0  0  0  0  0  0  0
   -5.6572    4.5402   11.2864 C   0  0  0  0  0  0  0  0  0  0  0  0
   -6.8349    4.2535   10.9711 O   0  0  0  0  0  0  0  0  0  0  0  0
   -5.3770    5.8711   11.6891 N   0  0  0  0  0  0  0  0  0  0  0  0
   -6.4599    6.8297   11.8583 C   0  0  0  0  0  0  0  0  0  0  0  0
   -7.2582    6.4423   13.0649 C   0  0  0  0  0  0  0  0  0  0  0  0
   -8.4001    7.3504   13.3043 C   0  0  0  0  0  0  0  0  0  0  0  0
   -8.5575    7.9638   14.3788 O   0  0  0  0  0  0  0  0  0  0  0  0
   -9.3295    7.5253   12.2956 O   0  0  0  0  0  0  0  0  0  0  0  0
   -1.4924   -0.2043    9.9372 N   0  0  0  0  0  0  0  0  0  0  0  0
   -1.9070    0.1451    8.6580 C   0  0  0  0  0  0  0  0  0  0  0  0
   -1.6681   -0.6850    7.5714 C   0  0  0  0  0  0  0  0  0  0  0  0
   -2.0440   -0.4013    6.3316 N   0  0  0  0  0  0  0  0  0  0  0  0
   -2.6996    0.7407    6.0370 C   0  0  0  0  0  0  0  0  0  0  0  0
   -2.9547    1.5910    7.0933 C   0  0  0  0  0  0  0  0  0  0  0  0
   -2.5713    1.3104    8.3833 C   0  0  0  0  0  0  0  0  0  0  0  0
   -3.1127    1.0627    4.7040 N   0  0  0  0  0  0  0  0  0  0  0  0
   -2.8187    0.3985    3.5656 C   0  0  0  0  0  0  0  0  0  0  0  0
   -3.4057    1.0269    2.4909 C   0  0  0  0  0  0  0  0  0  0  0  0
   -4.0639    2.0855    2.9847 N   0  0  0  0  0  0  0  0  0  0  0  0
   -3.8820    2.1014    4.3285 C   0  0  0  0  0  0  0  0  0  0  0  0
   -3.3515    0.6485    1.0532 C   0  0  0  0  0  0  0  0  0  0  0  0
   -4.5059   -0.0305    0.6627 F   0  0  0  0  0  0  0  0  0  0  0  0
   -3.1504    1.7531    0.2633 F   0  0  0  0  0  0  0  0  0  0  0  0
   -2.2854   -0.2099    0.8960 F   0  0  0  0  0  0  0  0  0  0  0  0
    2.4005    2.7805   11.2064 C   0  0  0  0  0  0  0  0  0  0  0  0
  1  2  1  0
  2  3  1  0
  3  4  1  0
  4  5  1  0
  4  6  1  0
  6  7  1  0
  7  8  2  0
  8  9  1  0
  9 10  2  0
 10 11  1  0
 11 12  2  0
 10 13  1  0
 13 14  2  0
 13 15  1  0
 15 16  1  0
 16 17  1  0
 17 18  1  0
 18 19  2  0
 18 20  1  0
  6 21  1  0
 21 22  1  0
 22 23  2  0
 23 24  1  0
 24 25  2  0
 25 26  1  0
 26 27  2  0
 25 28  1  0
 28 29  1  0
 29 30  2  0
 30 31  1  0
 31 32  2  0
 30 33  1  0
 33 34  1  0
 33 35  1  0
 33 36  1  0
  2 37  1  0
  5  2  1  0
 12  7  1  0
 27 22  1  0
 32 28  1  0
M  END
$$$$
