
     RDKit          3D

 37 40  0  0  0  0  0  0  0  0999 V2000
   -2.4353    1.1224   -3.8848 C   0  0  0  0  0  0  0  0  0  0  0  0
   -2.5209   -0.0495   -2.9350 C   0  0  0  0  0  0  0  0  0  0  0  0
   -3.8153    0.0142   -2.1522 C   0  0  0  0  0  0  0  0  0  0  0  0
   -4.0084   -1.4571   -2.4270 C   0  0  0  0  0  0  0  0  0  0  0  0
   -2.9895   -1.3358   -3.5401 C   0  0  0  0  0  0  0  0  0  0  0  0
   -5.4018   -1.8224   -2.9076 C   0  0  0  0  0  0  0  0  0  0  0  0
   -5.3871   -2.0066   -4.3606 C   0  0  0  0  0  0  0  0  0  0  0  0
   -5.2990   -0.9406   -5.2316 C   0  0  0  0  0  0  0  0  0  0  0  0
   -5.2977   -1.1547   -6.5917 C   0  0  0  0  0  0  0  0  0  0  0  0
   -5.3847   -2.4460   -7.1275 C   0  0  0  0  0  0  0  0  0  0  0  0
   -5.4730   -3.5153   -6.2615 C   0  0  0  0  0  0  0  0  0  0  0  0
   -5.4729   -3.2786   -4.8839 C   0  0  0  0  0  0  0  0  0  0  0  0
   -5.3798   -2.6247   -8.5686 C   0  0  0  0  0  0  0  0  0  0  0  0
   -5.1996   -3.7621   -9.0608 O   0  0  0  0  0  0  0  0  0  0  0  0
   -5.5759   -1.5348   -9.4551 N   0  0  0  0  0  0  0  0  0  0  0  0
   -5.5371   -1.7448  -10.8955 C   0  0  0  0  0  0  0  0  0  0  0  0
   -4.1980   -1.3102  -11.4068 C   0  0  0  0  0  0  0  0  0  0  0  0
   -3.2984   -2.4513  -11.6802 C   0  0  0  0  0  0  0  0  0  0  0  0
   -3.6581   -3.4484  -12.3375 O   0  0  0  0  0  0  0  0  0  0  0  0
   -2.0075   -2.4095  -11.1869 O   0  0  0  0  0  0  0  0  0  0  0  0
   -5.9612   -2.9105   -2.1564 N   0  0  0  0  0  0  0  0  0  0  0  0
   -6.3060   -2.9291   -0.8105 C   0  0  0  0  0  0  0  0  0  0  0  0
   -6.5729   -4.1213   -0.1516 C   0  0  0  0  0  0  0  0  0  0  0  0
   -6.9034   -4.1957    1.1306 N   0  0  0  0  0  0  0  0  0  0  0  0
   -7.0047   -3.0906    1.8984 C   0  0  0  0  0  0  0  0  0  0  0  0
   -6.7462   -1.8864    1.2765 C   0  0  0  0  0  0  0  0  0  0  0  0
   -6.4025   -1.7937   -0.0513 C   0  0  0  0  0  0  0  0  0  0  0  0
   -7.3605   -3.1530    3.2843 N   0  0  0  0  0  0  0  0  0  0  0  0
   -7.4205   -4.2476    4.0727 C   0  0  0  0  0  0  0  0  0  0  0  0
   -7.8031   -3.8889    5.3452 C   0  0  0  0  0  0  0  0  0  0  0  0
   -7.9772   -2.5596    5.3275 N   0  0  0  0  0  0  0  0  0  0  0  0
   -7.7069   -2.1192    4.0736 C   0  0  0  0  0  0  0  0  0  0  0  0
   -7.9984   -4.7607    6.5346 C   0  0  0  0  0  0  0  0  0  0  0  0
   -9.0567   -5.6496    6.3448 F   0  0  0  0  0  0  0  0  0  0  0  0
   -6.8451   -5.4407    6.8381 F   0  0  0  0  0  0  0  0  0  0  0  0
   -8.3225   -3.9413    7.5938 F   0  0  0  0  0  0  0  0  0  0  0  0
   -1.2937   -0.2503   -2.0834 C   0  0  0  0  0  0  0  0  0  0  0  0
  1  2  1  0
  2  3  1  0
  3  4  1  0
  4  5  1  0
  4  6  1  0
  6  7  1  0
  7  8  2  0
  8  9  1  0
  9 10  2  0
 10 11  1  0
 11 12  2  0
 10 13  1  0
 13 14  2  0
 13 15  1  0
 15 16  1  0
 16 17  1  0
 17 18  1  0
 18 19  2  0
 18 20  1  0
  6 21  1  0
 21 22  1  0
 22 23  2  0
 23 24  1  0
 24 25  2  0
 25 26  1  0
 26 27  2  0
 25 28  1  0
 28 29  1  0
 29 30  2  0
 30 31  1  0
 31 32  2  0
 30 33  1  0
 33 34  1  0
 33 35  1  0
 33 36  1  0
  2 37  1  0
  5  2  1  0
 12  7  1  0
 27 22  1  0
 32 28  1  0
M  END
$$$$
