
     RDKit          3D

 37 40  0  0  0  0  0  0  0  0999 V2000
   -8.3864  -11.6877   -7.8518 C   0  0  0  0  0  0  0  0  0  0  0  0
   -9.0105  -12.7282   -8.7522 C   0  0  0  0  0  0  0  0  0  0  0  0
  -10.2780  -12.1802   -9.3730 C   0  0  0  0  0  0  0  0  0  0  0  0
   -9.8180  -12.7286  -10.7015 C   0  0  0  0  0  0  0  0  0  0  0  0
   -8.4219  -12.8286  -10.1247 C   0  0  0  0  0  0  0  0  0  0  0  0
   -9.9369  -11.7473  -11.8542 C   0  0  0  0  0  0  0  0  0  0  0  0
   -8.6311  -11.5857  -12.4979 C   0  0  0  0  0  0  0  0  0  0  0  0
   -7.8320  -10.4862  -12.2637 C   0  0  0  0  0  0  0  0  0  0  0  0
   -6.6145  -10.3664  -12.8957 C   0  0  0  0  0  0  0  0  0  0  0  0
   -6.1547  -11.3455  -13.7856 C   0  0  0  0  0  0  0  0  0  0  0  0
   -6.9495  -12.4468  -14.0235 C   0  0  0  0  0  0  0  0  0  0  0  0
   -8.1822  -12.5512  -13.3728 C   0  0  0  0  0  0  0  0  0  0  0  0
   -4.8641  -11.1778  -14.4297 C   0  0  0  0  0  0  0  0  0  0  0  0
   -4.4402  -12.0474  -15.2250 O   0  0  0  0  0  0  0  0  0  0  0  0
   -4.0513  -10.0414  -14.1847 N   0  0  0  0  0  0  0  0  0  0  0  0
   -2.7737   -9.8924  -14.8672 C   0  0  0  0  0  0  0  0  0  0  0  0
   -3.0302   -9.4239  -16.2665 C   0  0  0  0  0  0  0  0  0  0  0  0
   -3.0445   -7.9495  -16.3766 C   0  0  0  0  0  0  0  0  0  0  0  0
   -4.1009   -7.2920  -16.4619 O   0  0  0  0  0  0  0  0  0  0  0  0
   -1.8378   -7.2747  -16.3853 O   0  0  0  0  0  0  0  0  0  0  0  0
  -11.0189  -12.0830  -12.7363 N   0  0  0  0  0  0  0  0  0  0  0  0
  -11.8224  -11.2172  -13.4679 C   0  0  0  0  0  0  0  0  0  0  0  0
  -11.8215   -9.8513  -13.2205 C   0  0  0  0  0  0  0  0  0  0  0  0
  -12.5659   -8.9816  -13.8900 N   0  0  0  0  0  0  0  0  0  0  0  0
  -13.3937   -9.3761  -14.8800 C   0  0  0  0  0  0  0  0  0  0  0  0
  -13.4207  -10.7282  -15.1540 C   0  0  0  0  0  0  0  0  0  0  0  0
  -12.6550  -11.6413  -14.4687 C   0  0  0  0  0  0  0  0  0  0  0  0
  -14.2044   -8.4504  -15.6128 N   0  0  0  0  0  0  0  0  0  0  0  0
  -14.3973   -7.1389  -15.3558 C   0  0  0  0  0  0  0  0  0  0  0  0
  -15.2470   -6.5971  -16.2934 C   0  0  0  0  0  0  0  0  0  0  0  0
  -15.5730   -7.5935  -17.1292 N   0  0  0  0  0  0  0  0  0  0  0  0
  -14.9368   -8.7156  -16.7105 C   0  0  0  0  0  0  0  0  0  0  0  0
  -15.7355   -5.1962  -16.4017 C   0  0  0  0  0  0  0  0  0  0  0  0
  -16.8825   -4.9972  -15.6329 F   0  0  0  0  0  0  0  0  0  0  0  0
  -14.7537   -4.3061  -16.0436 F   0  0  0  0  0  0  0  0  0  0  0  0
  -16.0708   -4.9806  -17.7205 F   0  0  0  0  0  0  0  0  0  0  0  0
   -9.1714  -14.0849   -8.1157 C   0  0  0  0  0  0  0  0  0  0  0  0
  1  2  1  0
  2  3  1  0
  3  4  1  0
  4  5  1  0
  4  6  1  0
  6  7  1  0
  7  8  2  0
  8  9  1  0
  9 10  2  0
 10 11  1  0
 11 12  2  0
 10 13  1  0
 13 14  2  0
 13 15  1  0
 15 16  1  0
 16 17  1  0
 17 18  1  0
 18 19  2  0
 18 20  1  0
  6 21  1  0
 21 22  1  0
 22 23  2  0
 23 24  1  0
 24 25  2  0
 25 26  1  0
 26 27  2  0
 25 28  1  0
 28 29  1  0
 29 30  2  0
 30 31  1  0
 31 32  2  0
 30 33  1  0
 33 34  1  0
 33 35  1  0
 33 36  1  0
  2 37  1  0
  5  2  1  0
 12  7  1  0
 27 22  1  0
 32 28  1  0
M  END
$$$$
