
     RDKit          3D

 37 40  0  0  0  0  0  0  0  0999 V2000
   -7.4506  -12.2464   -7.1350 C   0  0  0  0  0  0  0  0  0  0  0  0
   -7.7398  -13.2258   -8.2485 C   0  0  0  0  0  0  0  0  0  0  0  0
   -9.1924  -13.1221   -8.6628 C   0  0  0  0  0  0  0  0  0  0  0  0
   -8.7415  -13.1287  -10.1030 C   0  0  0  0  0  0  0  0  0  0  0  0
   -7.3510  -12.7733   -9.6212 C   0  0  0  0  0  0  0  0  0  0  0  0
   -9.3866  -12.0551  -10.9615 C   0  0  0  0  0  0  0  0  0  0  0  0
   -8.4682  -11.6672  -12.0346 C   0  0  0  0  0  0  0  0  0  0  0  0
   -8.3412  -12.4080  -13.1911 C   0  0  0  0  0  0  0  0  0  0  0  0
   -7.4594  -12.0152  -14.1730 C   0  0  0  0  0  0  0  0  0  0  0  0
   -6.6731  -10.8648  -14.0302 C   0  0  0  0  0  0  0  0  0  0  0  0
   -6.7960  -10.1205  -12.8761 C   0  0  0  0  0  0  0  0  0  0  0  0
   -7.6963  -10.5348  -11.8903 C   0  0  0  0  0  0  0  0  0  0  0  0
   -5.7564  -10.4882  -15.0915 C   0  0  0  0  0  0  0  0  0  0  0  0
   -4.9468   -9.5483  -14.9195 O   0  0  0  0  0  0  0  0  0  0  0  0
   -5.7458  -11.1609  -16.3403 N   0  0  0  0  0  0  0  0  0  0  0  0
   -4.7040  -10.8776  -17.3174 C   0  0  0  0  0  0  0  0  0  0  0  0
   -3.5607  -11.8167  -17.0842 C   0  0  0  0  0  0  0  0  0  0  0  0
   -2.5005  -11.2209  -16.2434 C   0  0  0  0  0  0  0  0  0  0  0  0
   -2.5756  -11.1749  -14.9992 O   0  0  0  0  0  0  0  0  0  0  0  0
   -1.3821  -10.6944  -16.8627 O   0  0  0  0  0  0  0  0  0  0  0  0
  -10.7059  -12.4285  -11.3875 N   0  0  0  0  0  0  0  0  0  0  0  0
  -11.6944  -11.6088  -11.9182 C   0  0  0  0  0  0  0  0  0  0  0  0
  -11.5209  -10.2342  -12.0042 C   0  0  0  0  0  0  0  0  0  0  0  0
  -12.4297   -9.4075  -12.5035 N   0  0  0  0  0  0  0  0  0  0  0  0
  -13.6120   -9.8584  -12.9724 C   0  0  0  0  0  0  0  0  0  0  0  0
  -13.8195  -11.2207  -12.9029 C   0  0  0  0  0  0  0  0  0  0  0  0
  -12.8870  -12.0898  -12.3882 C   0  0  0  0  0  0  0  0  0  0  0  0
  -14.6044   -8.9796  -13.5147 N   0  0  0  0  0  0  0  0  0  0  0  0
  -14.5742   -7.6305  -13.5637 C   0  0  0  0  0  0  0  0  0  0  0  0
  -15.7190   -7.1571  -14.1636 C   0  0  0  0  0  0  0  0  0  0  0  0
  -16.4521   -8.2335  -14.4822 N   0  0  0  0  0  0  0  0  0  0  0  0
  -15.7699   -9.3364  -14.0856 C   0  0  0  0  0  0  0  0  0  0  0  0
  -16.1112   -5.7468  -14.4285 C   0  0  0  0  0  0  0  0  0  0  0  0
  -16.3819   -5.5403  -15.7814 F   0  0  0  0  0  0  0  0  0  0  0  0
  -17.1895   -5.3856  -13.6596 F   0  0  0  0  0  0  0  0  0  0  0  0
  -15.0376   -4.9529  -14.0887 F   0  0  0  0  0  0  0  0  0  0  0  0
   -7.2750  -14.6332   -7.9746 C   0  0  0  0  0  0  0  0  0  0  0  0
  1  2  1  0
  2  3  1  0
  3  4  1  0
  4  5  1  0
  4  6  1  0
  6  7  1  0
  7  8  2  0
  8  9  1  0
  9 10  2  0
 10 11  1  0
 11 12  2  0
 10 13  1  0
 13 14  2  0
 13 15  1  0
 15 16  1  0
 16 17  1  0
 17 18  1  0
 18 19  2  0
 18 20  1  0
  6 21  1  0
 21 22  1  0
 22 23  2  0
 23 24  1  0
 24 25  2  0
 25 26  1  0
 26 27  2  0
 25 28  1  0
 28 29  1  0
 29 30  2  0
 30 31  1  0
 31 32  2  0
 30 33  1  0
 33 34  1  0
 33 35  1  0
 33 36  1  0
  2 37  1  0
  5  2  1  0
 12  7  1  0
 27 22  1  0
 32 28  1  0
M  END
$$$$
