
     RDKit          3D

 37 40  0  0  0  0  0  0  0  0999 V2000
  -11.6766   -8.7701    2.5712 C   0  0  0  0  0  0  0  0  0  0  0  0
  -10.2128   -8.8936    2.2180 C   0  0  0  0  0  0  0  0  0  0  0  0
  -10.0645   -9.4781    0.8292 C   0  0  0  0  0  0  0  0  0  0  0  0
   -9.0351   -8.4148    0.5340 C   0  0  0  0  0  0  0  0  0  0  0  0
   -9.5617   -7.6400    1.7232 C   0  0  0  0  0  0  0  0  0  0  0  0
   -9.2342   -7.7086   -0.7954 C   0  0  0  0  0  0  0  0  0  0  0  0
   -9.4767   -6.2830   -0.5624 C   0  0  0  0  0  0  0  0  0  0  0  0
   -8.4509   -5.3611   -0.5410 C   0  0  0  0  0  0  0  0  0  0  0  0
   -8.7190   -4.0306   -0.3092 C   0  0  0  0  0  0  0  0  0  0  0  0
  -10.0260   -3.5766   -0.0905 C   0  0  0  0  0  0  0  0  0  0  0  0
  -11.0553   -4.4938   -0.1108 C   0  0  0  0  0  0  0  0  0  0  0  0
  -10.7640   -5.8403   -0.3476 C   0  0  0  0  0  0  0  0  0  0  0  0
  -10.2622   -2.1642    0.1500 C   0  0  0  0  0  0  0  0  0  0  0  0
  -11.4222   -1.6984    0.0733 O   0  0  0  0  0  0  0  0  0  0  0  0
   -9.2044   -1.2768    0.4749 N   0  0  0  0  0  0  0  0  0  0  0  0
   -9.4802    0.1292    0.7352 C   0  0  0  0  0  0  0  0  0  0  0  0
   -9.6836    0.3125    2.2077 C   0  0  0  0  0  0  0  0  0  0  0  0
   -8.5072    0.9135    2.8717 C   0  0  0  0  0  0  0  0  0  0  0  0
   -7.9469    0.3862    3.8533 O   0  0  0  0  0  0  0  0  0  0  0  0
   -8.0098    2.1076    2.3835 O   0  0  0  0  0  0  0  0  0  0  0  0
   -8.1826   -8.0084   -1.7259 N   0  0  0  0  0  0  0  0  0  0  0  0
   -8.3047   -8.3975   -3.0541 C   0  0  0  0  0  0  0  0  0  0  0  0
   -7.1863   -8.6064   -3.8493 C   0  0  0  0  0  0  0  0  0  0  0  0
   -7.2463   -8.9803   -5.1203 N   0  0  0  0  0  0  0  0  0  0  0  0
   -8.4270   -9.1873   -5.7399 C   0  0  0  0  0  0  0  0  0  0  0  0
   -9.5612   -8.9890   -4.9797 C   0  0  0  0  0  0  0  0  0  0  0  0
   -9.5147   -8.6017   -3.6615 C   0  0  0  0  0  0  0  0  0  0  0  0
   -8.5098   -9.5912   -7.1115 N   0  0  0  0  0  0  0  0  0  0  0  0
   -7.4954   -9.7447   -7.9895 C   0  0  0  0  0  0  0  0  0  0  0  0
   -7.9883  -10.1454   -9.2106 C   0  0  0  0  0  0  0  0  0  0  0  0
   -9.3187  -10.2358   -9.0704 N   0  0  0  0  0  0  0  0  0  0  0  0
   -9.6286   -9.8980   -7.7941 C   0  0  0  0  0  0  0  0  0  0  0  0
   -7.2392  -10.4331  -10.4632 C   0  0  0  0  0  0  0  0  0  0  0  0
   -6.9964  -11.7993  -10.6076 F   0  0  0  0  0  0  0  0  0  0  0  0
   -7.9080   -9.9431  -11.5573 F   0  0  0  0  0  0  0  0  0  0  0  0
   -6.0207   -9.7975  -10.3663 F   0  0  0  0  0  0  0  0  0  0  0  0
   -9.3756   -9.5776    3.2682 C   0  0  0  0  0  0  0  0  0  0  0  0
  1  2  1  0
  2  3  1  0
  3  4  1  0
  4  5  1  0
  4  6  1  0
  6  7  1  0
  7  8  2  0
  8  9  1  0
  9 10  2  0
 10 11  1  0
 11 12  2  0
 10 13  1  0
 13 14  2  0
 13 15  1  0
 15 16  1  0
 16 17  1  0
 17 18  1  0
 18 19  2  0
 18 20  1  0
  6 21  1  0
 21 22  1  0
 22 23  2  0
 23 24  1  0
 24 25  2  0
 25 26  1  0
 26 27  2  0
 25 28  1  0
 28 29  1  0
 29 30  2  0
 30 31  1  0
 31 32  2  0
 30 33  1  0
 33 34  1  0
 33 35  1  0
 33 36  1  0
  2 37  1  0
  5  2  1  0
 12  7  1  0
 27 22  1  0
 32 28  1  0
M  END
$$$$
