
     RDKit          3D

 37 40  0  0  0  0  0  0  0  0999 V2000
   -8.2506  -12.7911   -8.7856 C   0  0  0  0  0  0  0  0  0  0  0  0
   -9.6032  -13.1449   -9.3582 C   0  0  0  0  0  0  0  0  0  0  0  0
  -10.4657  -11.9038   -9.4494 C   0  0  0  0  0  0  0  0  0  0  0  0
  -10.8587  -12.3270  -10.8437 C   0  0  0  0  0  0  0  0  0  0  0  0
   -9.6624  -13.2546  -10.8498 C   0  0  0  0  0  0  0  0  0  0  0  0
  -10.7793  -11.2164  -11.8762 C   0  0  0  0  0  0  0  0  0  0  0  0
   -9.3833  -11.0095  -12.2681 C   0  0  0  0  0  0  0  0  0  0  0  0
   -8.6468   -9.9370  -11.8098 C   0  0  0  0  0  0  0  0  0  0  0  0
   -7.3394   -9.7723  -12.2090 C   0  0  0  0  0  0  0  0  0  0  0  0
   -6.7233  -10.6776  -13.0825 C   0  0  0  0  0  0  0  0  0  0  0  0
   -7.4548  -11.7515  -13.5438 C   0  0  0  0  0  0  0  0  0  0  0  0
   -8.7807  -11.9023  -13.1276 C   0  0  0  0  0  0  0  0  0  0  0  0
   -5.3421  -10.4644  -13.4769 C   0  0  0  0  0  0  0  0  0  0  0  0
   -4.7167   -9.4622  -13.0611 O   0  0  0  0  0  0  0  0  0  0  0  0
   -4.6638  -11.3691  -14.3333 N   0  0  0  0  0  0  0  0  0  0  0  0
   -3.2186  -11.5222  -14.2417 C   0  0  0  0  0  0  0  0  0  0  0  0
   -2.5703  -10.3025  -14.8208 C   0  0  0  0  0  0  0  0  0  0  0  0
   -3.0863   -9.9712  -16.1661 C   0  0  0  0  0  0  0  0  0  0  0  0
   -4.2469   -9.5564  -16.3576 O   0  0  0  0  0  0  0  0  0  0  0  0
   -2.2475  -10.1281  -17.2540 O   0  0  0  0  0  0  0  0  0  0  0  0
  -11.6971  -11.4243  -12.9607 N   0  0  0  0  0  0  0  0  0  0  0  0
  -12.5636  -10.5012  -13.5331 C   0  0  0  0  0  0  0  0  0  0  0  0
  -13.3142  -10.8184  -14.6568 C   0  0  0  0  0  0  0  0  0  0  0  0
  -14.1568   -9.9771  -15.2407 N   0  0  0  0  0  0  0  0  0  0  0  0
  -14.3450   -8.7266  -14.7698 C   0  0  0  0  0  0  0  0  0  0  0  0
  -13.6149   -8.3759  -13.6528 C   0  0  0  0  0  0  0  0  0  0  0  0
  -12.7380   -9.2371  -13.0370 C   0  0  0  0  0  0  0  0  0  0  0  0
  -15.2509   -7.8054  -15.3880 N   0  0  0  0  0  0  0  0  0  0  0  0
  -15.9020   -7.9503  -16.5621 C   0  0  0  0  0  0  0  0  0  0  0  0
  -16.6804   -6.8418  -16.8068 C   0  0  0  0  0  0  0  0  0  0  0  0
  -16.4983   -6.0147  -15.7675 N   0  0  0  0  0  0  0  0  0  0  0  0
  -15.6296   -6.6055  -14.9100 C   0  0  0  0  0  0  0  0  0  0  0  0
  -17.5627   -6.5681  -17.9728 C   0  0  0  0  0  0  0  0  0  0  0  0
  -18.7234   -7.3404  -17.9240 F   0  0  0  0  0  0  0  0  0  0  0  0
  -17.8737   -5.2332  -18.0489 F   0  0  0  0  0  0  0  0  0  0  0  0
  -16.8662   -6.9271  -19.1061 F   0  0  0  0  0  0  0  0  0  0  0  0
  -10.2751  -14.3156   -8.6876 C   0  0  0  0  0  0  0  0  0  0  0  0
  1  2  1  0
  2  3  1  0
  3  4  1  0
  4  5  1  0
  4  6  1  0
  6  7  1  0
  7  8  2  0
  8  9  1  0
  9 10  2  0
 10 11  1  0
 11 12  2  0
 10 13  1  0
 13 14  2  0
 13 15  1  0
 15 16  1  0
 16 17  1  0
 17 18  1  0
 18 19  2  0
 18 20  1  0
  6 21  1  0
 21 22  1  0
 22 23  2  0
 23 24  1  0
 24 25  2  0
 25 26  1  0
 26 27  2  0
 25 28  1  0
 28 29  1  0
 29 30  2  0
 30 31  1  0
 31 32  2  0
 30 33  1  0
 33 34  1  0
 33 35  1  0
 33 36  1  0
  2 37  1  0
  5  2  1  0
 12  7  1  0
 27 22  1  0
 32 28  1  0
M  END
$$$$
