
     RDKit          3D

 37 40  0  0  0  0  0  0  0  0999 V2000
   -6.1728    3.2395   -2.5318 C   0  0  0  0  0  0  0  0  0  0  0  0
   -6.6100    1.8101   -2.7518 C   0  0  0  0  0  0  0  0  0  0  0  0
   -5.6646    0.8658   -2.0397 C   0  0  0  0  0  0  0  0  0  0  0  0
   -6.8671    0.1180   -1.5178 C   0  0  0  0  0  0  0  0  0  0  0  0
   -7.7101    1.3284   -1.8586 C   0  0  0  0  0  0  0  0  0  0  0  0
   -6.8102   -0.1917   -0.0323 C   0  0  0  0  0  0  0  0  0  0  0  0
   -7.3107   -1.5475    0.2058 C   0  0  0  0  0  0  0  0  0  0  0  0
   -6.4645   -2.6326    0.3015 C   0  0  0  0  0  0  0  0  0  0  0  0
   -6.9749   -3.8932    0.5167 C   0  0  0  0  0  0  0  0  0  0  0  0
   -8.3528   -4.1110    0.6437 C   0  0  0  0  0  0  0  0  0  0  0  0
   -9.2033   -3.0299    0.5489 C   0  0  0  0  0  0  0  0  0  0  0  0
   -8.6670   -1.7577    0.3303 C   0  0  0  0  0  0  0  0  0  0  0  0
   -8.8465   -5.4577    0.8700 C   0  0  0  0  0  0  0  0  0  0  0  0
  -10.0761   -5.6656    0.9860 O   0  0  0  0  0  0  0  0  0  0  0  0
   -7.9678   -6.5670    0.9661 N   0  0  0  0  0  0  0  0  0  0  0  0
   -8.5007   -7.9187    1.0628 C   0  0  0  0  0  0  0  0  0  0  0  0
   -9.8481   -7.9501    0.4094 C   0  0  0  0  0  0  0  0  0  0  0  0
   -9.7745   -8.3056   -1.0239 C   0  0  0  0  0  0  0  0  0  0  0  0
   -8.8089   -7.9881   -1.7466 O   0  0  0  0  0  0  0  0  0  0  0  0
  -10.8187   -9.0185   -1.5834 O   0  0  0  0  0  0  0  0  0  0  0  0
   -5.5189    0.0931    0.5269 N   0  0  0  0  0  0  0  0  0  0  0  0
   -5.2314    0.6826    1.7518 C   0  0  0  0  0  0  0  0  0  0  0  0
   -3.9221    0.8464    2.1828 C   0  0  0  0  0  0  0  0  0  0  0  0
   -3.5925    1.4041    3.3401 N   0  0  0  0  0  0  0  0  0  0  0  0
   -4.5306    1.8602    4.1961 C   0  0  0  0  0  0  0  0  0  0  0  0
   -5.8444    1.7140    3.8004 C   0  0  0  0  0  0  0  0  0  0  0  0
   -6.2012    1.1382    2.6042 C   0  0  0  0  0  0  0  0  0  0  0  0
   -4.1922    2.4649    5.4495 N   0  0  0  0  0  0  0  0  0  0  0  0
   -2.9598    2.6598    5.9659 C   0  0  0  0  0  0  0  0  0  0  0  0
   -3.0574    3.2736    7.1940 C   0  0  0  0  0  0  0  0  0  0  0  0
   -4.3660    3.4528    7.4246 N   0  0  0  0  0  0  0  0  0  0  0  0
   -5.0492    2.9598    6.3619 C   0  0  0  0  0  0  0  0  0  0  0  0
   -1.9635    3.6773    8.1178 C   0  0  0  0  0  0  0  0  0  0  0  0
   -2.0666    5.0233    8.4697 F   0  0  0  0  0  0  0  0  0  0  0  0
   -1.9514    2.8847    9.2386 F   0  0  0  0  0  0  0  0  0  0  0  0
   -0.7746    3.5092    7.4422 F   0  0  0  0  0  0  0  0  0  0  0  0
   -6.8683    1.4541   -4.1934 C   0  0  0  0  0  0  0  0  0  0  0  0
  1  2  1  0
  2  3  1  0
  3  4  1  0
  4  5  1  0
  4  6  1  0
  6  7  1  0
  7  8  2  0
  8  9  1  0
  9 10  2  0
 10 11  1  0
 11 12  2  0
 10 13  1  0
 13 14  2  0
 13 15  1  0
 15 16  1  0
 16 17  1  0
 17 18  1  0
 18 19  2  0
 18 20  1  0
  6 21  1  0
 21 22  1  0
 22 23  2  0
 23 24  1  0
 24 25  2  0
 25 26  1  0
 26 27  2  0
 25 28  1  0
 28 29  1  0
 29 30  2  0
 30 31  1  0
 31 32  2  0
 30 33  1  0
 33 34  1  0
 33 35  1  0
 33 36  1  0
  2 37  1  0
  5  2  1  0
 12  7  1  0
 27 22  1  0
 32 28  1  0
M  END
$$$$
