
     RDKit          3D

 37 40  0  0  0  0  0  0  0  0999 V2000
  -10.8892  -12.1274   -2.0431 C   0  0  0  0  0  0  0  0  0  0  0  0
   -9.7916  -11.8754   -3.0504 C   0  0  0  0  0  0  0  0  0  0  0  0
  -10.3067  -12.1336   -4.4505 C   0  0  0  0  0  0  0  0  0  0  0  0
   -9.6543  -10.8443   -4.8861 C   0  0  0  0  0  0  0  0  0  0  0  0
   -9.5811  -10.4425   -3.4284 C   0  0  0  0  0  0  0  0  0  0  0  0
  -10.5476   -9.9481   -5.7256 C   0  0  0  0  0  0  0  0  0  0  0  0
  -10.2202  -10.1178   -7.1431 C   0  0  0  0  0  0  0  0  0  0  0  0
  -11.1042  -10.6901   -8.0339 C   0  0  0  0  0  0  0  0  0  0  0  0
  -10.7552  -10.8407   -9.3573 C   0  0  0  0  0  0  0  0  0  0  0  0
   -9.5066  -10.4226   -9.8351 C   0  0  0  0  0  0  0  0  0  0  0  0
   -8.6190   -9.8499   -8.9490 C   0  0  0  0  0  0  0  0  0  0  0  0
   -8.9908   -9.7052   -7.6093 C   0  0  0  0  0  0  0  0  0  0  0  0
   -9.1812  -10.6012  -11.2389 C   0  0  0  0  0  0  0  0  0  0  0  0
   -8.0828  -10.1986  -11.6862 O   0  0  0  0  0  0  0  0  0  0  0  0
  -10.0813  -11.2278  -12.1384 N   0  0  0  0  0  0  0  0  0  0  0  0
   -9.6869  -11.4739  -13.5184 C   0  0  0  0  0  0  0  0  0  0  0  0
  -10.9009  -11.8736  -14.2993 C   0  0  0  0  0  0  0  0  0  0  0  0
  -11.2458  -13.3000  -14.1198 C   0  0  0  0  0  0  0  0  0  0  0  0
  -11.7249  -13.9964  -15.0368 O   0  0  0  0  0  0  0  0  0  0  0  0
  -11.0277  -13.8834  -12.8853 O   0  0  0  0  0  0  0  0  0  0  0  0
  -11.9350  -10.1084   -5.3924 N   0  0  0  0  0  0  0  0  0  0  0  0
  -12.9042   -9.1194   -5.2784 C   0  0  0  0  0  0  0  0  0  0  0  0
  -14.2167   -9.4313   -4.9514 C   0  0  0  0  0  0  0  0  0  0  0  0
  -15.1791   -8.5273   -4.8274 N   0  0  0  0  0  0  0  0  0  0  0  0
  -14.9406   -7.2125   -5.0153 C   0  0  0  0  0  0  0  0  0  0  0  0
  -13.6459   -6.8649   -5.3419 C   0  0  0  0  0  0  0  0  0  0  0  0
  -12.6381   -7.7906   -5.4739 C   0  0  0  0  0  0  0  0  0  0  0  0
  -15.9681   -6.2232   -4.8854 N   0  0  0  0  0  0  0  0  0  0  0  0
  -17.2500   -6.4097   -4.5040 C   0  0  0  0  0  0  0  0  0  0  0  0
  -17.9195   -5.2071   -4.5054 C   0  0  0  0  0  0  0  0  0  0  0  0
  -17.0317   -4.2801   -4.8928 N   0  0  0  0  0  0  0  0  0  0  0  0
  -15.8492   -4.9035   -5.1218 C   0  0  0  0  0  0  0  0  0  0  0  0
  -19.3401   -4.9369   -4.1564 C   0  0  0  0  0  0  0  0  0  0  0  0
  -19.8063   -5.8334   -3.1945 F   0  0  0  0  0  0  0  0  0  0  0  0
  -19.5018   -3.6425   -3.7288 F   0  0  0  0  0  0  0  0  0  0  0  0
  -20.0850   -5.1230   -5.3004 F   0  0  0  0  0  0  0  0  0  0  0  0
   -8.4886  -12.5643   -2.7352 C   0  0  0  0  0  0  0  0  0  0  0  0
  1  2  1  0
  2  3  1  0
  3  4  1  0
  4  5  1  0
  4  6  1  0
  6  7  1  0
  7  8  2  0
  8  9  1  0
  9 10  2  0
 10 11  1  0
 11 12  2  0
 10 13  1  0
 13 14  2  0
 13 15  1  0
 15 16  1  0
 16 17  1  0
 17 18  1  0
 18 19  2  0
 18 20  1  0
  6 21  1  0
 21 22  1  0
 22 23  2  0
 23 24  1  0
 24 25  2  0
 25 26  1  0
 26 27  2  0
 25 28  1  0
 28 29  1  0
 29 30  2  0
 30 31  1  0
 31 32  2  0
 30 33  1  0
 33 34  1  0
 33 35  1  0
 33 36  1  0
  2 37  1  0
  5  2  1  0
 12  7  1  0
 27 22  1  0
 32 28  1  0
M  END
$$$$
