
     RDKit          3D

 37 40  0  0  0  0  0  0  0  0999 V2000
  -17.2726   -7.1105    0.7038 C   0  0  0  0  0  0  0  0  0  0  0  0
  -15.8231   -7.2595    1.1029 C   0  0  0  0  0  0  0  0  0  0  0  0
  -14.9840   -7.5881   -0.1138 C   0  0  0  0  0  0  0  0  0  0  0  0
  -13.9835   -6.5560    0.3459 C   0  0  0  0  0  0  0  0  0  0  0  0
  -15.0588   -5.9802    1.2427 C   0  0  0  0  0  0  0  0  0  0  0  0
  -13.5225   -5.6071   -0.7464 C   0  0  0  0  0  0  0  0  0  0  0  0
  -12.7859   -4.4913   -0.1484 C   0  0  0  0  0  0  0  0  0  0  0  0
  -11.4073   -4.4571   -0.1203 C   0  0  0  0  0  0  0  0  0  0  0  0
  -10.7516   -3.3943    0.4597 C   0  0  0  0  0  0  0  0  0  0  0  0
  -11.4552   -2.3271    1.0326 C   0  0  0  0  0  0  0  0  0  0  0  0
  -12.8335   -2.3560    1.0073 C   0  0  0  0  0  0  0  0  0  0  0  0
  -13.4818   -3.4432    0.4142 C   0  0  0  0  0  0  0  0  0  0  0  0
  -10.7222   -1.2269    1.6333 C   0  0  0  0  0  0  0  0  0  0  0  0
   -9.4703   -1.2455    1.6602 O   0  0  0  0  0  0  0  0  0  0  0  0
  -11.3876   -0.1106    2.2016 N   0  0  0  0  0  0  0  0  0  0  0  0
  -10.6211    0.9806    2.7865 C   0  0  0  0  0  0  0  0  0  0  0  0
  -10.2429    0.6037    4.1859 C   0  0  0  0  0  0  0  0  0  0  0  0
   -8.7785    0.5635    4.3856 C   0  0  0  0  0  0  0  0  0  0  0  0
   -8.0138   -0.0671    3.6285 O   0  0  0  0  0  0  0  0  0  0  0  0
   -8.2370    1.2530    5.4547 O   0  0  0  0  0  0  0  0  0  0  0  0
  -12.8395   -6.2969   -1.8043 N   0  0  0  0  0  0  0  0  0  0  0  0
  -13.2641   -6.4830   -3.1141 C   0  0  0  0  0  0  0  0  0  0  0  0
  -14.4834   -5.9860   -3.5537 C   0  0  0  0  0  0  0  0  0  0  0  0
  -14.9349   -6.1329   -4.7920 N   0  0  0  0  0  0  0  0  0  0  0  0
  -14.2217   -6.7912   -5.7295 C   0  0  0  0  0  0  0  0  0  0  0  0
  -13.0034   -7.2995   -5.3282 C   0  0  0  0  0  0  0  0  0  0  0  0
  -12.5225   -7.1550   -4.0485 C   0  0  0  0  0  0  0  0  0  0  0  0
  -14.6943   -6.9590   -7.0711 N   0  0  0  0  0  0  0  0  0  0  0  0
  -15.8741   -6.5530   -7.5875 C   0  0  0  0  0  0  0  0  0  0  0  0
  -15.9503   -6.9040   -8.9162 C   0  0  0  0  0  0  0  0  0  0  0  0
  -14.8017   -7.5307   -9.2085 N   0  0  0  0  0  0  0  0  0  0  0  0
  -14.0438   -7.5607   -8.0842 C   0  0  0  0  0  0  0  0  0  0  0  0
  -17.0597   -6.6606   -9.8769 C   0  0  0  0  0  0  0  0  0  0  0  0
  -16.7153   -7.0704  -11.1652 F   0  0  0  0  0  0  0  0  0  0  0  0
  -18.2111   -7.2835   -9.4635 F   0  0  0  0  0  0  0  0  0  0  0  0
  -17.2788   -5.3008   -9.9128 F   0  0  0  0  0  0  0  0  0  0  0  0
  -15.5928   -8.1758    2.2774 C   0  0  0  0  0  0  0  0  0  0  0  0
  1  2  1  0
  2  3  1  0
  3  4  1  0
  4  5  1  0
  4  6  1  0
  6  7  1  0
  7  8  2  0
  8  9  1  0
  9 10  2  0
 10 11  1  0
 11 12  2  0
 10 13  1  0
 13 14  2  0
 13 15  1  0
 15 16  1  0
 16 17  1  0
 17 18  1  0
 18 19  2  0
 18 20  1  0
  6 21  1  0
 21 22  1  0
 22 23  2  0
 23 24  1  0
 24 25  2  0
 25 26  1  0
 26 27  2  0
 25 28  1  0
 28 29  1  0
 29 30  2  0
 30 31  1  0
 31 32  2  0
 30 33  1  0
 33 34  1  0
 33 35  1  0
 33 36  1  0
  2 37  1  0
  5  2  1  0
 12  7  1  0
 27 22  1  0
 32 28  1  0
M  END
$$$$
