
     RDKit          3D

 37 40  0  0  0  0  0  0  0  0999 V2000
  -13.6482   -4.2730    6.1899 C   0  0  0  0  0  0  0  0  0  0  0  0
  -12.3457   -3.8827    5.5311 C   0  0  0  0  0  0  0  0  0  0  0  0
  -11.5685   -5.1245    5.1485 C   0  0  0  0  0  0  0  0  0  0  0  0
  -11.3014   -4.4953    3.8031 C   0  0  0  0  0  0  0  0  0  0  0  0
  -12.4379   -3.5339    4.0785 C   0  0  0  0  0  0  0  0  0  0  0  0
  -11.5512   -5.4190    2.6240 C   0  0  0  0  0  0  0  0  0  0  0  0
  -12.8009   -5.0407    1.9603 C   0  0  0  0  0  0  0  0  0  0  0  0
  -12.8438   -4.0694    0.9819 C   0  0  0  0  0  0  0  0  0  0  0  0
  -14.0405   -3.7354    0.3882 C   0  0  0  0  0  0  0  0  0  0  0  0
  -15.2376   -4.3639    0.7547 C   0  0  0  0  0  0  0  0  0  0  0  0
  -15.2005   -5.3355    1.7322 C   0  0  0  0  0  0  0  0  0  0  0  0
  -13.9765   -5.6613    2.3236 C   0  0  0  0  0  0  0  0  0  0  0  0
  -16.4764   -3.9798    0.1018 C   0  0  0  0  0  0  0  0  0  0  0  0
  -17.5419   -4.5801    0.3714 O   0  0  0  0  0  0  0  0  0  0  0  0
  -16.5225   -2.9281   -0.8488 N   0  0  0  0  0  0  0  0  0  0  0  0
  -17.7787   -2.5810   -1.4984 C   0  0  0  0  0  0  0  0  0  0  0  0
  -18.4403   -3.8410   -1.9656 C   0  0  0  0  0  0  0  0  0  0  0  0
  -17.8886   -4.3288   -3.2476 C   0  0  0  0  0  0  0  0  0  0  0  0
  -16.7210   -4.7530   -3.3591 O   0  0  0  0  0  0  0  0  0  0  0  0
  -18.7009   -4.3133   -4.3664 O   0  0  0  0  0  0  0  0  0  0  0  0
  -10.4047   -5.5158    1.7650 N   0  0  0  0  0  0  0  0  0  0  0  0
   -9.7522   -6.6667    1.3406 C   0  0  0  0  0  0  0  0  0  0  0  0
  -10.2914   -7.9256    1.5670 C   0  0  0  0  0  0  0  0  0  0  0  0
   -9.7123   -9.0546    1.1814 N   0  0  0  0  0  0  0  0  0  0  0  0
   -8.5318   -9.0546    0.5276 C   0  0  0  0  0  0  0  0  0  0  0  0
   -7.9656   -7.8200    0.2849 C   0  0  0  0  0  0  0  0  0  0  0  0
   -8.5540   -6.6416    0.6784 C   0  0  0  0  0  0  0  0  0  0  0  0
   -7.8927  -10.2644    0.1042 N   0  0  0  0  0  0  0  0  0  0  0  0
   -6.7561  -10.3898   -0.6140 C   0  0  0  0  0  0  0  0  0  0  0  0
   -6.4728  -11.7216   -0.8153 C   0  0  0  0  0  0  0  0  0  0  0  0
   -7.4506  -12.4120   -0.2111 N   0  0  0  0  0  0  0  0  0  0  0  0
   -8.3091  -11.5215    0.3450 C   0  0  0  0  0  0  0  0  0  0  0  0
   -5.3270  -12.3250   -1.5474 C   0  0  0  0  0  0  0  0  0  0  0  0
   -4.5731  -13.1541   -0.7166 F   0  0  0  0  0  0  0  0  0  0  0  0
   -5.7604  -13.0141   -2.6528 F   0  0  0  0  0  0  0  0  0  0  0  0
   -4.5145  -11.2912   -1.9590 F   0  0  0  0  0  0  0  0  0  0  0  0
  -11.5424   -2.8635    6.2977 C   0  0  0  0  0  0  0  0  0  0  0  0
  1  2  1  0
  2  3  1  0
  3  4  1  0
  4  5  1  0
  4  6  1  0
  6  7  1  0
  7  8  2  0
  8  9  1  0
  9 10  2  0
 10 11  1  0
 11 12  2  0
 10 13  1  0
 13 14  2  0
 13 15  1  0
 15 16  1  0
 16 17  1  0
 17 18  1  0
 18 19  2  0
 18 20  1  0
  6 21  1  0
 21 22  1  0
 22 23  2  0
 23 24  1  0
 24 25  2  0
 25 26  1  0
 26 27  2  0
 25 28  1  0
 28 29  1  0
 29 30  2  0
 30 31  1  0
 31 32  2  0
 30 33  1  0
 33 34  1  0
 33 35  1  0
 33 36  1  0
  2 37  1  0
  5  2  1  0
 12  7  1  0
 27 22  1  0
 32 28  1  0
M  END
$$$$
