
     RDKit          3D

 37 40  0  0  0  0  0  0  0  0999 V2000
  -17.1431   -7.6683   -2.7190 C   0  0  0  0  0  0  0  0  0  0  0  0
  -16.4710   -7.7666   -1.3694 C   0  0  0  0  0  0  0  0  0  0  0  0
  -15.1732   -8.5365   -1.4941 C   0  0  0  0  0  0  0  0  0  0  0  0
  -14.5084   -7.4757   -0.6514 C   0  0  0  0  0  0  0  0  0  0  0  0
  -15.6795   -6.5657   -0.9552 C   0  0  0  0  0  0  0  0  0  0  0  0
  -13.1852   -6.9791   -1.2068 C   0  0  0  0  0  0  0  0  0  0  0  0
  -12.7743   -5.7704   -0.4890 C   0  0  0  0  0  0  0  0  0  0  0  0
  -12.7922   -5.6966    0.8883 C   0  0  0  0  0  0  0  0  0  0  0  0
  -12.4071   -4.5386    1.5259 C   0  0  0  0  0  0  0  0  0  0  0  0
  -11.9898   -3.4125    0.8049 C   0  0  0  0  0  0  0  0  0  0  0  0
  -11.9699   -3.4806   -0.5721 C   0  0  0  0  0  0  0  0  0  0  0  0
  -12.3644   -4.6645   -1.2019 C   0  0  0  0  0  0  0  0  0  0  0  0
  -11.5924   -2.2123    1.5191 C   0  0  0  0  0  0  0  0  0  0  0  0
  -11.4286   -2.2442    2.7604 O   0  0  0  0  0  0  0  0  0  0  0  0
  -11.3791   -0.9816    0.8470 N   0  0  0  0  0  0  0  0  0  0  0  0
  -10.6803    0.1075    1.5148 C   0  0  0  0  0  0  0  0  0  0  0  0
   -9.2447   -0.2816    1.6912 C   0  0  0  0  0  0  0  0  0  0  0  0
   -8.8520   -0.3688    3.1139 C   0  0  0  0  0  0  0  0  0  0  0  0
   -9.5657    0.0726    4.0366 O   0  0  0  0  0  0  0  0  0  0  0  0
   -7.6451   -0.9637    3.4321 O   0  0  0  0  0  0  0  0  0  0  0  0
  -12.2012   -8.0231   -1.2650 N   0  0  0  0  0  0  0  0  0  0  0  0
  -11.6764   -8.6380   -2.3951 C   0  0  0  0  0  0  0  0  0  0  0  0
  -12.1427   -8.3290   -3.6655 C   0  0  0  0  0  0  0  0  0  0  0  0
  -11.6757   -8.8835   -4.7760 N   0  0  0  0  0  0  0  0  0  0  0  0
  -10.6926   -9.8073   -4.7439 C   0  0  0  0  0  0  0  0  0  0  0  0
  -10.2041  -10.1395   -3.4970 C   0  0  0  0  0  0  0  0  0  0  0  0
  -10.6781   -9.5733   -2.3375 C   0  0  0  0  0  0  0  0  0  0  0  0
  -10.1768  -10.4160   -5.9333 N   0  0  0  0  0  0  0  0  0  0  0  0
  -10.5941  -10.2291   -7.2039 C   0  0  0  0  0  0  0  0  0  0  0  0
   -9.8415  -10.9974   -8.0628 C   0  0  0  0  0  0  0  0  0  0  0  0
   -8.9567  -11.6584   -7.3025 N   0  0  0  0  0  0  0  0  0  0  0  0
   -9.1656  -11.3010   -6.0111 C   0  0  0  0  0  0  0  0  0  0  0  0
   -9.9479  -11.1079   -9.5424 C   0  0  0  0  0  0  0  0  0  0  0  0
   -9.5458  -12.3671   -9.9882 F   0  0  0  0  0  0  0  0  0  0  0  0
  -11.2250  -10.8316   -9.9635 F   0  0  0  0  0  0  0  0  0  0  0  0
   -9.0901  -10.1761  -10.0850 F   0  0  0  0  0  0  0  0  0  0  0  0
  -17.3708   -8.2489   -0.2606 C   0  0  0  0  0  0  0  0  0  0  0  0
  1  2  1  0
  2  3  1  0
  3  4  1  0
  4  5  1  0
  4  6  1  0
  6  7  1  0
  7  8  2  0
  8  9  1  0
  9 10  2  0
 10 11  1  0
 11 12  2  0
 10 13  1  0
 13 14  2  0
 13 15  1  0
 15 16  1  0
 16 17  1  0
 17 18  1  0
 18 19  2  0
 18 20  1  0
  6 21  1  0
 21 22  1  0
 22 23  2  0
 23 24  1  0
 24 25  2  0
 25 26  1  0
 26 27  2  0
 25 28  1  0
 28 29  1  0
 29 30  2  0
 30 31  1  0
 31 32  2  0
 30 33  1  0
 33 34  1  0
 33 35  1  0
 33 36  1  0
  2 37  1  0
  5  2  1  0
 12  7  1  0
 27 22  1  0
 32 28  1  0
M  END
$$$$
