
     RDKit          3D

 37 40  0  0  0  0  0  0  0  0999 V2000
   -6.4235  -11.1519    1.3610 C   0  0  0  0  0  0  0  0  0  0  0  0
   -5.7810   -9.8789    0.8617 C   0  0  0  0  0  0  0  0  0  0  0  0
   -6.1192   -9.6686   -0.5991 C   0  0  0  0  0  0  0  0  0  0  0  0
   -6.4265   -8.2259   -0.2799 C   0  0  0  0  0  0  0  0  0  0  0  0
   -6.5202   -8.6168    1.1797 C   0  0  0  0  0  0  0  0  0  0  0  0
   -7.7344   -7.7243   -0.8660 C   0  0  0  0  0  0  0  0  0  0  0  0
   -8.0332   -6.3936   -0.3319 C   0  0  0  0  0  0  0  0  0  0  0  0
   -7.7748   -5.2436   -1.0484 C   0  0  0  0  0  0  0  0  0  0  0  0
   -8.0614   -4.0103   -0.5074 C   0  0  0  0  0  0  0  0  0  0  0  0
   -8.6177   -3.8859    0.7722 C   0  0  0  0  0  0  0  0  0  0  0  0
   -8.8780   -5.0322    1.4929 C   0  0  0  0  0  0  0  0  0  0  0  0
   -8.5804   -6.2753    0.9273 C   0  0  0  0  0  0  0  0  0  0  0  0
   -8.9037   -2.5649    1.3028 C   0  0  0  0  0  0  0  0  0  0  0  0
   -9.6268   -2.4375    2.3174 O   0  0  0  0  0  0  0  0  0  0  0  0
   -8.3825   -1.3912    0.7005 N   0  0  0  0  0  0  0  0  0  0  0  0
   -8.7959   -0.0778    1.1743 C   0  0  0  0  0  0  0  0  0  0  0  0
   -8.6542   -0.0401    2.6649 C   0  0  0  0  0  0  0  0  0  0  0  0
   -7.5896    0.8845    3.1096 C   0  0  0  0  0  0  0  0  0  0  0  0
   -7.0257    0.7778    4.2169 O   0  0  0  0  0  0  0  0  0  0  0  0
   -7.2053    1.9077    2.2627 O   0  0  0  0  0  0  0  0  0  0  0  0
   -7.7575   -7.8306   -2.2977 N   0  0  0  0  0  0  0  0  0  0  0  0
   -8.8467   -8.1077   -3.1145 C   0  0  0  0  0  0  0  0  0  0  0  0
  -10.1067   -8.3407   -2.5807 C   0  0  0  0  0  0  0  0  0  0  0  0
  -11.1792   -8.6067   -3.3141 N   0  0  0  0  0  0  0  0  0  0  0  0
  -11.1152   -8.6701   -4.6605 C   0  0  0  0  0  0  0  0  0  0  0  0
   -9.8775   -8.4436   -5.2267 C   0  0  0  0  0  0  0  0  0  0  0  0
   -8.7573   -8.1668   -4.4795 C   0  0  0  0  0  0  0  0  0  0  0  0
  -12.2634   -8.9562   -5.4675 N   0  0  0  0  0  0  0  0  0  0  0  0
  -13.5631   -8.8851   -5.1084 C   0  0  0  0  0  0  0  0  0  0  0  0
  -14.3634   -9.2395   -6.1707 C   0  0  0  0  0  0  0  0  0  0  0  0
  -13.5376   -9.5291   -7.1865 N   0  0  0  0  0  0  0  0  0  0  0  0
  -12.2644   -9.3551   -6.7530 C   0  0  0  0  0  0  0  0  0  0  0  0
  -15.8484   -9.3044   -6.2312 C   0  0  0  0  0  0  0  0  0  0  0  0
  -16.3600   -8.3868   -7.1491 F   0  0  0  0  0  0  0  0  0  0  0  0
  -16.2713  -10.5753   -6.5319 F   0  0  0  0  0  0  0  0  0  0  0  0
  -16.3239   -8.9615   -4.9844 F   0  0  0  0  0  0  0  0  0  0  0  0
   -4.3125   -9.7580    1.1789 C   0  0  0  0  0  0  0  0  0  0  0  0
  1  2  1  0
  2  3  1  0
  3  4  1  0
  4  5  1  0
  4  6  1  0
  6  7  1  0
  7  8  2  0
  8  9  1  0
  9 10  2  0
 10 11  1  0
 11 12  2  0
 10 13  1  0
 13 14  2  0
 13 15  1  0
 15 16  1  0
 16 17  1  0
 17 18  1  0
 18 19  2  0
 18 20  1  0
  6 21  1  0
 21 22  1  0
 22 23  2  0
 23 24  1  0
 24 25  2  0
 25 26  1  0
 26 27  2  0
 25 28  1  0
 28 29  1  0
 29 30  2  0
 30 31  1  0
 31 32  2  0
 30 33  1  0
 33 34  1  0
 33 35  1  0
 33 36  1  0
  2 37  1  0
  5  2  1  0
 12  7  1  0
 27 22  1  0
 32 28  1  0
M  END
$$$$
