
     RDKit          3D

 37 40  0  0  0  0  0  0  0  0999 V2000
  -13.4409   -6.7561    5.6623 C   0  0  0  0  0  0  0  0  0  0  0  0
  -11.9364   -6.6344    5.5962 C   0  0  0  0  0  0  0  0  0  0  0  0
  -11.4011   -7.4670    4.4506 C   0  0  0  0  0  0  0  0  0  0  0  0
  -10.5292   -6.2987    4.0604 C   0  0  0  0  0  0  0  0  0  0  0  0
  -11.4190   -5.4118    4.9051 C   0  0  0  0  0  0  0  0  0  0  0  0
  -10.5606   -5.9667    2.5789 C   0  0  0  0  0  0  0  0  0  0  0  0
  -10.2823   -4.5412    2.3894 C   0  0  0  0  0  0  0  0  0  0  0  0
  -11.2889   -3.6218    2.1795 C   0  0  0  0  0  0  0  0  0  0  0  0
  -10.9856   -2.2913    1.9962 C   0  0  0  0  0  0  0  0  0  0  0  0
   -9.6614   -1.8349    2.0168 C   0  0  0  0  0  0  0  0  0  0  0  0
   -8.6512   -2.7496    2.2262 C   0  0  0  0  0  0  0  0  0  0  0  0
   -8.9783   -4.0961    2.4104 C   0  0  0  0  0  0  0  0  0  0  0  0
   -9.3881   -0.4225    1.8188 C   0  0  0  0  0  0  0  0  0  0  0  0
  -10.1801    0.4398    2.2634 O   0  0  0  0  0  0  0  0  0  0  0  0
   -8.2332    0.0229    1.1262 N   0  0  0  0  0  0  0  0  0  0  0  0
   -7.8290    1.4200    1.1963 C   0  0  0  0  0  0  0  0  0  0  0  0
   -6.8828    1.5876    2.3452 C   0  0  0  0  0  0  0  0  0  0  0  0
   -7.4214    2.4751    3.3979 C   0  0  0  0  0  0  0  0  0  0  0  0
   -8.0236    2.0409    4.4001 O   0  0  0  0  0  0  0  0  0  0  0  0
   -7.2496    3.8405    3.2643 O   0  0  0  0  0  0  0  0  0  0  0  0
   -9.7399   -6.8599    1.8106 N   0  0  0  0  0  0  0  0  0  0  0  0
   -9.9981   -7.3827    0.5494 C   0  0  0  0  0  0  0  0  0  0  0  0
  -11.0313   -6.8912   -0.2365 C   0  0  0  0  0  0  0  0  0  0  0  0
  -11.3189   -7.3516   -1.4465 N   0  0  0  0  0  0  0  0  0  0  0  0
  -10.6090   -8.3527   -2.0076 C   0  0  0  0  0  0  0  0  0  0  0  0
   -9.5732   -8.8665   -1.2546 C   0  0  0  0  0  0  0  0  0  0  0  0
   -9.2634   -8.3995    0.0007 C   0  0  0  0  0  0  0  0  0  0  0  0
  -10.9060   -8.8618   -3.3129 N   0  0  0  0  0  0  0  0  0  0  0  0
  -11.8575   -8.4325   -4.1695 C   0  0  0  0  0  0  0  0  0  0  0  0
  -11.8229   -9.1823   -5.3233 C   0  0  0  0  0  0  0  0  0  0  0  0
  -10.8375  -10.0774   -5.1635 N   0  0  0  0  0  0  0  0  0  0  0  0
  -10.2851   -9.8774   -3.9412 C   0  0  0  0  0  0  0  0  0  0  0  0
  -12.6824   -9.0638   -6.5316 C   0  0  0  0  0  0  0  0  0  0  0  0
  -12.0750   -9.6432   -7.6459 F   0  0  0  0  0  0  0  0  0  0  0  0
  -13.9175   -9.6207   -6.3106 F   0  0  0  0  0  0  0  0  0  0  0  0
  -12.8411   -7.7200   -6.7906 F   0  0  0  0  0  0  0  0  0  0  0  0
  -11.2357   -6.8689    6.9099 C   0  0  0  0  0  0  0  0  0  0  0  0
  1  2  1  0
  2  3  1  0
  3  4  1  0
  4  5  1  0
  4  6  1  0
  6  7  1  0
  7  8  2  0
  8  9  1  0
  9 10  2  0
 10 11  1  0
 11 12  2  0
 10 13  1  0
 13 14  2  0
 13 15  1  0
 15 16  1  0
 16 17  1  0
 17 18  1  0
 18 19  2  0
 18 20  1  0
  6 21  1  0
 21 22  1  0
 22 23  2  0
 23 24  1  0
 24 25  2  0
 25 26  1  0
 26 27  2  0
 25 28  1  0
 28 29  1  0
 29 30  2  0
 30 31  1  0
 31 32  2  0
 30 33  1  0
 33 34  1  0
 33 35  1  0
 33 36  1  0
  2 37  1  0
  5  2  1  0
 12  7  1  0
 27 22  1  0
 32 28  1  0
M  END
$$$$
