
     RDKit          3D

 37 40  0  0  0  0  0  0  0  0999 V2000
   -7.3198  -13.4373   -8.6674 C   0  0  0  0  0  0  0  0  0  0  0  0
   -8.7561  -13.7092   -9.0493 C   0  0  0  0  0  0  0  0  0  0  0  0
   -9.6114  -12.5000   -8.7350 C   0  0  0  0  0  0  0  0  0  0  0  0
  -10.2523  -12.6490  -10.0931 C   0  0  0  0  0  0  0  0  0  0  0  0
   -9.0837  -13.5222  -10.4978 C   0  0  0  0  0  0  0  0  0  0  0  0
  -10.3517  -11.3537  -10.8794 C   0  0  0  0  0  0  0  0  0  0  0  0
   -9.1199  -11.1486  -11.6449 C   0  0  0  0  0  0  0  0  0  0  0  0
   -9.1302  -10.6144  -12.9166 C   0  0  0  0  0  0  0  0  0  0  0  0
   -7.9512  -10.4459  -13.6076 C   0  0  0  0  0  0  0  0  0  0  0  0
   -6.7190  -10.8073  -13.0479 C   0  0  0  0  0  0  0  0  0  0  0  0
   -6.7029  -11.3418  -11.7770 C   0  0  0  0  0  0  0  0  0  0  0  0
   -7.9096  -11.5054  -11.0908 C   0  0  0  0  0  0  0  0  0  0  0  0
   -5.5006  -10.6118  -13.8131 C   0  0  0  0  0  0  0  0  0  0  0  0
   -4.4071  -11.0362  -13.3742 O   0  0  0  0  0  0  0  0  0  0  0  0
   -5.5059   -9.9439  -15.0645 N   0  0  0  0  0  0  0  0  0  0  0  0
   -4.2949   -9.8881  -15.8713 C   0  0  0  0  0  0  0  0  0  0  0  0
   -4.6236  -10.3422  -17.2602 C   0  0  0  0  0  0  0  0  0  0  0  0
   -4.4269  -11.7962  -17.4423 C   0  0  0  0  0  0  0  0  0  0  0  0
   -4.4747  -12.6050  -16.4940 O   0  0  0  0  0  0  0  0  0  0  0  0
   -4.1803  -12.2765  -18.7152 O   0  0  0  0  0  0  0  0  0  0  0  0
  -11.5671  -11.2788  -11.6401 N   0  0  0  0  0  0  0  0  0  0  0  0
  -12.5142  -10.2623  -11.6359 C   0  0  0  0  0  0  0  0  0  0  0  0
  -12.2731   -9.0557  -10.9933 C   0  0  0  0  0  0  0  0  0  0  0  0
  -13.1404   -8.0529  -10.9608 N   0  0  0  0  0  0  0  0  0  0  0  0
  -14.3438   -8.1410  -11.5649 C   0  0  0  0  0  0  0  0  0  0  0  0
  -14.6183   -9.3270  -12.2143 C   0  0  0  0  0  0  0  0  0  0  0  0
  -13.7295  -10.3749  -12.2564 C   0  0  0  0  0  0  0  0  0  0  0  0
  -15.2920   -7.0679  -11.5396 N   0  0  0  0  0  0  0  0  0  0  0  0
  -15.1811   -5.8833  -10.9009 C   0  0  0  0  0  0  0  0  0  0  0  0
  -16.3071   -5.1234  -11.1228 C   0  0  0  0  0  0  0  0  0  0  0  0
  -17.1105   -5.8573  -11.9061 N   0  0  0  0  0  0  0  0  0  0  0  0
  -16.4885   -7.0363  -12.1553 C   0  0  0  0  0  0  0  0  0  0  0  0
  -16.6184   -3.7589  -10.6188 C   0  0  0  0  0  0  0  0  0  0  0  0
  -15.5684   -2.8741  -10.8659 F   0  0  0  0  0  0  0  0  0  0  0  0
  -17.7855   -3.2885  -11.1675 F   0  0  0  0  0  0  0  0  0  0  0  0
  -16.7761   -3.8532   -9.2533 F   0  0  0  0  0  0  0  0  0  0  0  0
   -9.3052  -15.0085   -8.5184 C   0  0  0  0  0  0  0  0  0  0  0  0
  1  2  1  0
  2  3  1  0
  3  4  1  0
  4  5  1  0
  4  6  1  0
  6  7  1  0
  7  8  2  0
  8  9  1  0
  9 10  2  0
 10 11  1  0
 11 12  2  0
 10 13  1  0
 13 14  2  0
 13 15  1  0
 15 16  1  0
 16 17  1  0
 17 18  1  0
 18 19  2  0
 18 20  1  0
  6 21  1  0
 21 22  1  0
 22 23  2  0
 23 24  1  0
 24 25  2  0
 25 26  1  0
 26 27  2  0
 25 28  1  0
 28 29  1  0
 29 30  2  0
 30 31  1  0
 31 32  2  0
 30 33  1  0
 33 34  1  0
 33 35  1  0
 33 36  1  0
  2 37  1  0
  5  2  1  0
 12  7  1  0
 27 22  1  0
 32 28  1  0
M  END
$$$$
