
     RDKit          3D

 37 40  0  0  0  0  0  0  0  0999 V2000
   -5.0833   -1.7020    8.4650 C   0  0  0  0  0  0  0  0  0  0  0  0
   -4.2633   -0.5663    7.8987 C   0  0  0  0  0  0  0  0  0  0  0  0
   -4.1059   -0.7392    6.4028 C   0  0  0  0  0  0  0  0  0  0  0  0
   -4.4404    0.7232    6.2381 C   0  0  0  0  0  0  0  0  0  0  0  0
   -5.0135    0.7026    7.6391 C   0  0  0  0  0  0  0  0  0  0  0  0
   -5.4694    1.0079    5.1583 C   0  0  0  0  0  0  0  0  0  0  0  0
   -6.0943    2.3091    5.4067 C   0  0  0  0  0  0  0  0  0  0  0  0
   -7.4545    2.5021    5.2834 C   0  0  0  0  0  0  0  0  0  0  0  0
   -8.0028    3.7434    5.5165 C   0  0  0  0  0  0  0  0  0  0  0  0
   -7.2063    4.8363    5.8818 C   0  0  0  0  0  0  0  0  0  0  0  0
   -5.8460    4.6491    6.0065 C   0  0  0  0  0  0  0  0  0  0  0  0
   -5.3074    3.3818    5.7659 C   0  0  0  0  0  0  0  0  0  0  0  0
   -7.8276    6.1273    6.1179 C   0  0  0  0  0  0  0  0  0  0  0  0
   -9.0664    6.2617    5.9924 O   0  0  0  0  0  0  0  0  0  0  0  0
   -7.0655    7.2634    6.4928 N   0  0  0  0  0  0  0  0  0  0  0  0
   -7.6864    8.5796    6.5420 C   0  0  0  0  0  0  0  0  0  0  0  0
   -8.3300    8.7556    7.8830 C   0  0  0  0  0  0  0  0  0  0  0  0
   -7.5300    9.6084    8.7878 C   0  0  0  0  0  0  0  0  0  0  0  0
   -7.6344   10.8511    8.8073 O   0  0  0  0  0  0  0  0  0  0  0  0
   -6.6308    9.0024    9.6457 O   0  0  0  0  0  0  0  0  0  0  0  0
   -4.9292    0.8278    3.8402 N   0  0  0  0  0  0  0  0  0  0  0  0
   -5.1144   -0.2496    2.9827 C   0  0  0  0  0  0  0  0  0  0  0  0
   -4.1294   -0.6312    2.0822 C   0  0  0  0  0  0  0  0  0  0  0  0
   -4.2535   -1.6517    1.2444 N   0  0  0  0  0  0  0  0  0  0  0  0
   -5.3725   -2.4051    1.2109 C   0  0  0  0  0  0  0  0  0  0  0  0
   -6.3739   -2.0548    2.0931 C   0  0  0  0  0  0  0  0  0  0  0  0
   -6.2596   -0.9999    2.9671 C   0  0  0  0  0  0  0  0  0  0  0  0
   -5.5230   -3.5105    0.3127 N   0  0  0  0  0  0  0  0  0  0  0  0
   -4.6326   -3.9626   -0.5963 C   0  0  0  0  0  0  0  0  0  0  0  0
   -5.1541   -5.0469   -1.2648 C   0  0  0  0  0  0  0  0  0  0  0  0
   -6.3763   -5.2543   -0.7540 N   0  0  0  0  0  0  0  0  0  0  0  0
   -6.5940   -4.3184    0.2029 C   0  0  0  0  0  0  0  0  0  0  0  0
   -4.5292   -5.8590   -2.3431 C   0  0  0  0  0  0  0  0  0  0  0  0
   -5.4049   -6.0421   -3.4136 F   0  0  0  0  0  0  0  0  0  0  0  0
   -3.3570   -5.2865   -2.7706 F   0  0  0  0  0  0  0  0  0  0  0  0
   -4.2499   -7.0991   -1.8117 F   0  0  0  0  0  0  0  0  0  0  0  0
   -2.9707   -0.3083    8.6297 C   0  0  0  0  0  0  0  0  0  0  0  0
  1  2  1  0
  2  3  1  0
  3  4  1  0
  4  5  1  0
  4  6  1  0
  6  7  1  0
  7  8  2  0
  8  9  1  0
  9 10  2  0
 10 11  1  0
 11 12  2  0
 10 13  1  0
 13 14  2  0
 13 15  1  0
 15 16  1  0
 16 17  1  0
 17 18  1  0
 18 19  2  0
 18 20  1  0
  6 21  1  0
 21 22  1  0
 22 23  2  0
 23 24  1  0
 24 25  2  0
 25 26  1  0
 26 27  2  0
 25 28  1  0
 28 29  1  0
 29 30  2  0
 30 31  1  0
 31 32  2  0
 30 33  1  0
 33 34  1  0
 33 35  1  0
 33 36  1  0
  2 37  1  0
  5  2  1  0
 12  7  1  0
 27 22  1  0
 32 28  1  0
M  END
$$$$
