
     RDKit          3D

 37 40  0  0  0  0  0  0  0  0999 V2000
   -4.7545    2.1354   -0.7078 C   0  0  0  0  0  0  0  0  0  0  0  0
   -5.0854    3.1448    0.3667 C   0  0  0  0  0  0  0  0  0  0  0  0
   -6.3011    2.6893    1.1458 C   0  0  0  0  0  0  0  0  0  0  0  0
   -5.5693    3.0413    2.4178 C   0  0  0  0  0  0  0  0  0  0  0  0
   -4.2804    3.0345    1.6237 C   0  0  0  0  0  0  0  0  0  0  0  0
   -5.6349    1.9682    3.4902 C   0  0  0  0  0  0  0  0  0  0  0  0
   -5.5136    2.5874    4.8121 C   0  0  0  0  0  0  0  0  0  0  0  0
   -6.2264    3.7163    5.1585 C   0  0  0  0  0  0  0  0  0  0  0  0
   -6.0775    4.2741    6.4086 C   0  0  0  0  0  0  0  0  0  0  0  0
   -5.2080    3.7195    7.3565 C   0  0  0  0  0  0  0  0  0  0  0  0
   -4.4929    2.5910    7.0155 C   0  0  0  0  0  0  0  0  0  0  0  0
   -4.6571    2.0388    5.7419 C   0  0  0  0  0  0  0  0  0  0  0  0
   -5.0825    4.3413    8.6627 C   0  0  0  0  0  0  0  0  0  0  0  0
   -4.3518    3.8237    9.5382 O   0  0  0  0  0  0  0  0  0  0  0  0
   -5.7721    5.5375    8.9876 N   0  0  0  0  0  0  0  0  0  0  0  0
   -5.6162    6.1395   10.3043 C   0  0  0  0  0  0  0  0  0  0  0  0
   -6.4870    5.4017   11.2743 C   0  0  0  0  0  0  0  0  0  0  0  0
   -7.8047    6.0469   11.4569 C   0  0  0  0  0  0  0  0  0  0  0  0
   -8.7701    5.4647   11.9904 O   0  0  0  0  0  0  0  0  0  0  0  0
   -7.9714    7.3475   11.0182 O   0  0  0  0  0  0  0  0  0  0  0  0
   -6.7695    1.1053    3.3183 N   0  0  0  0  0  0  0  0  0  0  0  0
   -6.8279   -0.0989    2.6277 C   0  0  0  0  0  0  0  0  0  0  0  0
   -5.6938   -0.6547    2.0516 C   0  0  0  0  0  0  0  0  0  0  0  0
   -5.6933   -1.8010    1.3848 N   0  0  0  0  0  0  0  0  0  0  0  0
   -6.8225   -2.5208    1.2181 C   0  0  0  0  0  0  0  0  0  0  0  0
   -7.9705   -1.9986    1.7778 C   0  0  0  0  0  0  0  0  0  0  0  0
   -7.9863   -0.8119    2.4715 C   0  0  0  0  0  0  0  0  0  0  0  0
   -6.8398   -3.7604    0.5010 N   0  0  0  0  0  0  0  0  0  0  0  0
   -5.8262   -4.3317   -0.1845 C   0  0  0  0  0  0  0  0  0  0  0  0
   -6.2440   -5.5225   -0.7340 C   0  0  0  0  0  0  0  0  0  0  0  0
   -7.5273   -5.6746   -0.3767 N   0  0  0  0  0  0  0  0  0  0  0  0
   -7.8827   -4.6016    0.3727 C   0  0  0  0  0  0  0  0  0  0  0  0
   -5.4681   -6.4829   -1.5638 C   0  0  0  0  0  0  0  0  0  0  0  0
   -5.3631   -7.7255   -0.9384 F   0  0  0  0  0  0  0  0  0  0  0  0
   -6.0269   -6.6155   -2.8107 F   0  0  0  0  0  0  0  0  0  0  0  0
   -4.1959   -5.9716   -1.6994 F   0  0  0  0  0  0  0  0  0  0  0  0
   -5.1626    4.5688   -0.1209 C   0  0  0  0  0  0  0  0  0  0  0  0
  1  2  1  0
  2  3  1  0
  3  4  1  0
  4  5  1  0
  4  6  1  0
  6  7  1  0
  7  8  2  0
  8  9  1  0
  9 10  2  0
 10 11  1  0
 11 12  2  0
 10 13  1  0
 13 14  2  0
 13 15  1  0
 15 16  1  0
 16 17  1  0
 17 18  1  0
 18 19  2  0
 18 20  1  0
  6 21  1  0
 21 22  1  0
 22 23  2  0
 23 24  1  0
 24 25  2  0
 25 26  1  0
 26 27  2  0
 25 28  1  0
 28 29  1  0
 29 30  2  0
 30 31  1  0
 31 32  2  0
 30 33  1  0
 33 34  1  0
 33 35  1  0
 33 36  1  0
  2 37  1  0
  5  2  1  0
 12  7  1  0
 27 22  1  0
 32 28  1  0
M  END
$$$$
