
     RDKit          3D

 37 40  0  0  0  0  0  0  0  0999 V2000
    1.8358    4.8104    8.8167 C   0  0  0  0  0  0  0  0  0  0  0  0
    0.4775    5.3204    9.2381 C   0  0  0  0  0  0  0  0  0  0  0  0
   -0.6001    4.6830    8.3867 C   0  0  0  0  0  0  0  0  0  0  0  0
   -1.3926    4.4327    9.6463 C   0  0  0  0  0  0  0  0  0  0  0  0
   -0.1191    4.6495   10.4357 C   0  0  0  0  0  0  0  0  0  0  0  0
   -1.9527    3.0258    9.7594 C   0  0  0  0  0  0  0  0  0  0  0  0
   -3.2692    2.9687    9.1200 C   0  0  0  0  0  0  0  0  0  0  0  0
   -3.6721    1.8818    8.3725 C   0  0  0  0  0  0  0  0  0  0  0  0
   -4.9146    1.8703    7.7792 C   0  0  0  0  0  0  0  0  0  0  0  0
   -5.7980    2.9489    7.9143 C   0  0  0  0  0  0  0  0  0  0  0  0
   -5.4004    4.0381    8.6604 C   0  0  0  0  0  0  0  0  0  0  0  0
   -4.1355    4.0319    9.2552 C   0  0  0  0  0  0  0  0  0  0  0  0
   -7.0986    2.8936    7.2710 C   0  0  0  0  0  0  0  0  0  0  0  0
   -7.7657    3.9412    7.1098 O   0  0  0  0  0  0  0  0  0  0  0  0
   -7.6504    1.6708    6.8102 N   0  0  0  0  0  0  0  0  0  0  0  0
   -8.9422    1.6560    6.1384 C   0  0  0  0  0  0  0  0  0  0  0  0
   -8.9210    2.6712    5.0373 C   0  0  0  0  0  0  0  0  0  0  0  0
   -8.0655    2.2598    3.9038 C   0  0  0  0  0  0  0  0  0  0  0  0
   -7.8846    2.9804    2.9020 O   0  0  0  0  0  0  0  0  0  0  0  0
   -7.4420    1.0269    3.9584 O   0  0  0  0  0  0  0  0  0  0  0  0
   -1.0117    2.0356    9.3169 N   0  0  0  0  0  0  0  0  0  0  0  0
   -0.3887    1.0523   10.0755 C   0  0  0  0  0  0  0  0  0  0  0  0
    0.4397    0.1060    9.4880 C   0  0  0  0  0  0  0  0  0  0  0  0
    1.0600   -0.8510   10.1649 N   0  0  0  0  0  0  0  0  0  0  0  0
    0.9238   -0.9712   11.5020 C   0  0  0  0  0  0  0  0  0  0  0  0
    0.1071   -0.0469   12.1206 C   0  0  0  0  0  0  0  0  0  0  0  0
   -0.5421    0.9503   11.4323 C   0  0  0  0  0  0  0  0  0  0  0  0
    1.5863   -1.9985   12.2484 N   0  0  0  0  0  0  0  0  0  0  0  0
    2.4728   -2.9091   11.7920 C   0  0  0  0  0  0  0  0  0  0  0  0
    2.8810   -3.7243   12.8232 C   0  0  0  0  0  0  0  0  0  0  0  0
    2.2332   -3.3020   13.9185 N   0  0  0  0  0  0  0  0  0  0  0  0
    1.4490   -2.2543   13.5627 C   0  0  0  0  0  0  0  0  0  0  0  0
    3.8433   -4.8580   12.7831 C   0  0  0  0  0  0  0  0  0  0  0  0
    3.9985   -5.3470   11.4858 F   0  0  0  0  0  0  0  0  0  0  0  0
    5.0567   -4.4892   13.3086 F   0  0  0  0  0  0  0  0  0  0  0  0
    3.3149   -5.8706   13.5537 F   0  0  0  0  0  0  0  0  0  0  0  0
    0.3799    6.8213    9.3356 C   0  0  0  0  0  0  0  0  0  0  0  0
  1  2  1  0
  2  3  1  0
  3  4  1  0
  4  5  1  0
  4  6  1  0
  6  7  1  0
  7  8  2  0
  8  9  1  0
  9 10  2  0
 10 11  1  0
 11 12  2  0
 10 13  1  0
 13 14  2  0
 13 15  1  0
 15 16  1  0
 16 17  1  0
 17 18  1  0
 18 19  2  0
 18 20  1  0
  6 21  1  0
 21 22  1  0
 22 23  2  0
 23 24  1  0
 24 25  2  0
 25 26  1  0
 26 27  2  0
 25 28  1  0
 28 29  1  0
 29 30  2  0
 30 31  1  0
 31 32  2  0
 30 33  1  0
 33 34  1  0
 33 35  1  0
 33 36  1  0
  2 37  1  0
  5  2  1  0
 12  7  1  0
 27 22  1  0
 32 28  1  0
M  END
$$$$
