
     RDKit          3D

 37 40  0  0  0  0  0  0  0  0999 V2000
    1.8955   -2.1249    9.0353 C   0  0  0  0  0  0  0  0  0  0  0  0
    1.8408   -0.6555    8.6882 C   0  0  0  0  0  0  0  0  0  0  0  0
    0.4148   -0.2508    8.3795 C   0  0  0  0  0  0  0  0  0  0  0  0
    0.6146    0.9684    9.2462 C   0  0  0  0  0  0  0  0  0  0  0  0
    1.8184    0.2815    9.8551 C   0  0  0  0  0  0  0  0  0  0  0  0
   -0.5117    1.2215   10.2327 C   0  0  0  0  0  0  0  0  0  0  0  0
   -1.5776    1.9818    9.5761 C   0  0  0  0  0  0  0  0  0  0  0  0
   -1.6701    3.3538    9.6847 C   0  0  0  0  0  0  0  0  0  0  0  0
   -2.6929    4.0316    9.0599 C   0  0  0  0  0  0  0  0  0  0  0  0
   -3.6601    3.3575    8.3034 C   0  0  0  0  0  0  0  0  0  0  0  0
   -3.5726    1.9860    8.1915 C   0  0  0  0  0  0  0  0  0  0  0  0
   -2.5274    1.3150    8.8328 C   0  0  0  0  0  0  0  0  0  0  0  0
   -4.7212    4.1131    7.6618 C   0  0  0  0  0  0  0  0  0  0  0  0
   -5.7188    3.5206    7.1903 O   0  0  0  0  0  0  0  0  0  0  0  0
   -4.6660    5.5259    7.5482 N   0  0  0  0  0  0  0  0  0  0  0  0
   -5.6190    6.2317    6.7032 C   0  0  0  0  0  0  0  0  0  0  0  0
   -6.9868    6.0807    7.2946 C   0  0  0  0  0  0  0  0  0  0  0  0
   -7.1463    6.8385    8.5541 C   0  0  0  0  0  0  0  0  0  0  0  0
   -6.1815    7.3464    9.1598 O   0  0  0  0  0  0  0  0  0  0  0  0
   -8.4162    6.9889    9.0798 O   0  0  0  0  0  0  0  0  0  0  0  0
   -0.9324    0.0156   10.8889 N   0  0  0  0  0  0  0  0  0  0  0  0
   -1.3217   -0.1431   12.2132 C   0  0  0  0  0  0  0  0  0  0  0  0
   -1.8165   -1.3538   12.6784 C   0  0  0  0  0  0  0  0  0  0  0  0
   -2.1993   -1.5598   13.9313 N   0  0  0  0  0  0  0  0  0  0  0  0
   -2.1317   -0.5826   14.8595 C   0  0  0  0  0  0  0  0  0  0  0  0
   -1.6443    0.6356   14.4326 C   0  0  0  0  0  0  0  0  0  0  0  0
   -1.2437    0.8639   13.1376 C   0  0  0  0  0  0  0  0  0  0  0  0
   -2.5409   -0.7880   16.2166 N   0  0  0  0  0  0  0  0  0  0  0  0
   -3.1579   -1.8701   16.7378 C   0  0  0  0  0  0  0  0  0  0  0  0
   -3.3828   -1.6797   18.0824 C   0  0  0  0  0  0  0  0  0  0  0  0
   -2.8955   -0.4664   18.3794 N   0  0  0  0  0  0  0  0  0  0  0  0
   -2.3859    0.0694   17.2425 C   0  0  0  0  0  0  0  0  0  0  0  0
   -4.0308   -2.6017   19.0533 C   0  0  0  0  0  0  0  0  0  0  0  0
   -3.4604   -2.4872   20.3213 F   0  0  0  0  0  0  0  0  0  0  0  0
   -5.3844   -2.3799   19.1109 F   0  0  0  0  0  0  0  0  0  0  0  0
   -3.8100   -3.8865   18.6075 F   0  0  0  0  0  0  0  0  0  0  0  0
    2.8434   -0.2247    7.6485 C   0  0  0  0  0  0  0  0  0  0  0  0
  1  2  1  0
  2  3  1  0
  3  4  1  0
  4  5  1  0
  4  6  1  0
  6  7  1  0
  7  8  2  0
  8  9  1  0
  9 10  2  0
 10 11  1  0
 11 12  2  0
 10 13  1  0
 13 14  2  0
 13 15  1  0
 15 16  1  0
 16 17  1  0
 17 18  1  0
 18 19  2  0
 18 20  1  0
  6 21  1  0
 21 22  1  0
 22 23  2  0
 23 24  1  0
 24 25  2  0
 25 26  1  0
 26 27  2  0
 25 28  1  0
 28 29  1  0
 29 30  2  0
 30 31  1  0
 31 32  2  0
 30 33  1  0
 33 34  1  0
 33 35  1  0
 33 36  1  0
  2 37  1  0
  5  2  1  0
 12  7  1  0
 27 22  1  0
 32 28  1  0
M  END
$$$$
