
     RDKit          3D

 37 40  0  0  0  0  0  0  0  0999 V2000
  -13.2085   -8.1519    0.5030 C   0  0  0  0  0  0  0  0  0  0  0  0
  -11.8334   -8.5808    0.9588 C   0  0  0  0  0  0  0  0  0  0  0  0
  -11.0680   -9.1790   -0.2025 C   0  0  0  0  0  0  0  0  0  0  0  0
   -9.8727   -8.3563    0.2122 C   0  0  0  0  0  0  0  0  0  0  0  0
  -10.8093   -7.4915    1.0288 C   0  0  0  0  0  0  0  0  0  0  0  0
   -9.1978   -7.6197   -0.9314 C   0  0  0  0  0  0  0  0  0  0  0  0
   -8.6422   -6.3562   -0.4413 C   0  0  0  0  0  0  0  0  0  0  0  0
   -9.0499   -5.1364   -0.9397 C   0  0  0  0  0  0  0  0  0  0  0  0
   -8.4964   -3.9708   -0.4592 C   0  0  0  0  0  0  0  0  0  0  0  0
   -7.5136   -3.9867    0.5389 C   0  0  0  0  0  0  0  0  0  0  0  0
   -7.1023   -5.2032    1.0407 C   0  0  0  0  0  0  0  0  0  0  0  0
   -7.6755   -6.3759    0.5407 C   0  0  0  0  0  0  0  0  0  0  0  0
   -6.9577   -2.7328    1.0157 C   0  0  0  0  0  0  0  0  0  0  0  0
   -6.0882   -2.7327    1.9171 O   0  0  0  0  0  0  0  0  0  0  0  0
   -7.3732   -1.4843    0.4859 N   0  0  0  0  0  0  0  0  0  0  0  0
   -6.3939   -0.4433    0.2072 C   0  0  0  0  0  0  0  0  0  0  0  0
   -5.8912    0.1020    1.5084 C   0  0  0  0  0  0  0  0  0  0  0  0
   -6.7072    1.2317    2.0023 C   0  0  0  0  0  0  0  0  0  0  0  0
   -7.4127    1.1537    3.0279 O   0  0  0  0  0  0  0  0  0  0  0  0
   -6.6861    2.4212    1.2978 O   0  0  0  0  0  0  0  0  0  0  0  0
   -8.2767   -8.4605   -1.6428 N   0  0  0  0  0  0  0  0  0  0  0  0
   -8.3353   -8.8542   -2.9740 C   0  0  0  0  0  0  0  0  0  0  0  0
   -7.3101   -9.5888   -3.5538 C   0  0  0  0  0  0  0  0  0  0  0  0
   -7.3168   -9.9918   -4.8173 N   0  0  0  0  0  0  0  0  0  0  0  0
   -8.3454   -9.7075   -5.6431 C   0  0  0  0  0  0  0  0  0  0  0  0
   -9.3834   -8.9780   -5.1007 C   0  0  0  0  0  0  0  0  0  0  0  0
   -9.3905   -8.5537   -3.7932 C   0  0  0  0  0  0  0  0  0  0  0  0
   -8.3686  -10.1347   -7.0100 N   0  0  0  0  0  0  0  0  0  0  0  0
   -7.3837  -10.7493   -7.6995 C   0  0  0  0  0  0  0  0  0  0  0  0
   -7.7970  -10.9957   -8.9891 C   0  0  0  0  0  0  0  0  0  0  0  0
   -9.0487  -10.5242   -9.0819 N   0  0  0  0  0  0  0  0  0  0  0  0
   -9.3896  -10.0029   -7.8772 C   0  0  0  0  0  0  0  0  0  0  0  0
   -7.0458  -11.6495  -10.0941 C   0  0  0  0  0  0  0  0  0  0  0  0
   -6.0629  -10.8044  -10.6098 F   0  0  0  0  0  0  0  0  0  0  0  0
   -6.4931  -12.8347   -9.6766 F   0  0  0  0  0  0  0  0  0  0  0  0
   -7.9470  -11.9108  -11.1030 F   0  0  0  0  0  0  0  0  0  0  0  0
  -11.8281   -9.4296    2.2043 C   0  0  0  0  0  0  0  0  0  0  0  0
  1  2  1  0
  2  3  1  0
  3  4  1  0
  4  5  1  0
  4  6  1  0
  6  7  1  0
  7  8  2  0
  8  9  1  0
  9 10  2  0
 10 11  1  0
 11 12  2  0
 10 13  1  0
 13 14  2  0
 13 15  1  0
 15 16  1  0
 16 17  1  0
 17 18  1  0
 18 19  2  0
 18 20  1  0
  6 21  1  0
 21 22  1  0
 22 23  2  0
 23 24  1  0
 24 25  2  0
 25 26  1  0
 26 27  2  0
 25 28  1  0
 28 29  1  0
 29 30  2  0
 30 31  1  0
 31 32  2  0
 30 33  1  0
 33 34  1  0
 33 35  1  0
 33 36  1  0
  2 37  1  0
  5  2  1  0
 12  7  1  0
 27 22  1  0
 32 28  1  0
M  END
$$$$
