
     RDKit          3D

 37 40  0  0  0  0  0  0  0  0999 V2000
  -14.6400  -11.8712   -3.3077 C   0  0  0  0  0  0  0  0  0  0  0  0
  -13.1985  -12.1576   -3.6585 C   0  0  0  0  0  0  0  0  0  0  0  0
  -13.0472  -12.2794   -5.1601 C   0  0  0  0  0  0  0  0  0  0  0  0
  -11.8238  -11.4005   -5.0688 C   0  0  0  0  0  0  0  0  0  0  0  0
  -12.2962  -10.9641   -3.6983 C   0  0  0  0  0  0  0  0  0  0  0  0
  -11.7866  -10.2783   -6.0912 C   0  0  0  0  0  0  0  0  0  0  0  0
  -10.9879   -9.1664   -5.5706 C   0  0  0  0  0  0  0  0  0  0  0  0
  -11.5049   -7.8946   -5.4378 C   0  0  0  0  0  0  0  0  0  0  0  0
  -10.7187   -6.8735   -4.9529 C   0  0  0  0  0  0  0  0  0  0  0  0
   -9.3851   -7.0913   -4.5838 C   0  0  0  0  0  0  0  0  0  0  0  0
   -8.8631   -8.3608   -4.7145 C   0  0  0  0  0  0  0  0  0  0  0  0
   -9.6763   -9.3847   -5.2085 C   0  0  0  0  0  0  0  0  0  0  0  0
   -8.5929   -5.9848   -4.0772 C   0  0  0  0  0  0  0  0  0  0  0  0
   -9.1473   -4.9075   -3.7601 O   0  0  0  0  0  0  0  0  0  0  0  0
   -7.1859   -6.0836   -3.9262 N   0  0  0  0  0  0  0  0  0  0  0  0
   -6.4332   -4.9876   -3.3324 C   0  0  0  0  0  0  0  0  0  0  0  0
   -6.7016   -4.9653   -1.8590 C   0  0  0  0  0  0  0  0  0  0  0  0
   -6.2276   -6.1892   -1.1783 C   0  0  0  0  0  0  0  0  0  0  0  0
   -5.0398   -6.5670   -1.2242 O   0  0  0  0  0  0  0  0  0  0  0  0
   -7.1389   -6.9438   -0.4628 O   0  0  0  0  0  0  0  0  0  0  0  0
  -11.4073  -10.7500   -7.3932 N   0  0  0  0  0  0  0  0  0  0  0  0
  -11.9028  -10.3420   -8.6255 C   0  0  0  0  0  0  0  0  0  0  0  0
  -12.8033   -9.2905   -8.7276 C   0  0  0  0  0  0  0  0  0  0  0  0
  -13.3045   -8.8597   -9.8773 N   0  0  0  0  0  0  0  0  0  0  0  0
  -12.9642   -9.4285  -11.0527 C   0  0  0  0  0  0  0  0  0  0  0  0
  -12.0702  -10.4776  -10.9899 C   0  0  0  0  0  0  0  0  0  0  0  0
  -11.5424  -10.9350   -9.8058 C   0  0  0  0  0  0  0  0  0  0  0  0
  -13.4959   -8.9758  -12.3031 N   0  0  0  0  0  0  0  0  0  0  0  0
  -14.3733   -7.9707  -12.5116 C   0  0  0  0  0  0  0  0  0  0  0  0
  -14.6358   -7.8485  -13.8572 C   0  0  0  0  0  0  0  0  0  0  0  0
  -13.9080   -8.7920  -14.4719 N   0  0  0  0  0  0  0  0  0  0  0  0
  -13.2185   -9.4726  -13.5229 C   0  0  0  0  0  0  0  0  0  0  0  0
  -15.5363   -6.8824  -14.5418 C   0  0  0  0  0  0  0  0  0  0  0  0
  -16.7506   -7.4763  -14.8868 F   0  0  0  0  0  0  0  0  0  0  0  0
  -15.7460   -5.7717  -13.7627 F   0  0  0  0  0  0  0  0  0  0  0  0
  -14.9113   -6.4958  -15.7072 F   0  0  0  0  0  0  0  0  0  0  0  0
  -12.5837  -13.2937   -2.8820 C   0  0  0  0  0  0  0  0  0  0  0  0
  1  2  1  0
  2  3  1  0
  3  4  1  0
  4  5  1  0
  4  6  1  0
  6  7  1  0
  7  8  2  0
  8  9  1  0
  9 10  2  0
 10 11  1  0
 11 12  2  0
 10 13  1  0
 13 14  2  0
 13 15  1  0
 15 16  1  0
 16 17  1  0
 17 18  1  0
 18 19  2  0
 18 20  1  0
  6 21  1  0
 21 22  1  0
 22 23  2  0
 23 24  1  0
 24 25  2  0
 25 26  1  0
 26 27  2  0
 25 28  1  0
 28 29  1  0
 29 30  2  0
 30 31  1  0
 31 32  2  0
 30 33  1  0
 33 34  1  0
 33 35  1  0
 33 36  1  0
  2 37  1  0
  5  2  1  0
 12  7  1  0
 27 22  1  0
 32 28  1  0
M  END
$$$$
