
     RDKit          3D

 37 40  0  0  0  0  0  0  0  0999 V2000
  -11.3091  -10.8294   -7.5681 C   0  0  0  0  0  0  0  0  0  0  0  0
  -11.4668  -11.9078   -8.6145 C   0  0  0  0  0  0  0  0  0  0  0  0
  -12.4135  -11.4396   -9.6994 C   0  0  0  0  0  0  0  0  0  0  0  0
  -11.4354  -11.9611  -10.7236 C   0  0  0  0  0  0  0  0  0  0  0  0
  -10.3784  -11.9743   -9.6398 C   0  0  0  0  0  0  0  0  0  0  0  0
  -11.1427  -10.9909  -11.8544 C   0  0  0  0  0  0  0  0  0  0  0  0
   -9.7095  -11.0068  -12.1562 C   0  0  0  0  0  0  0  0  0  0  0  0
   -8.8268  -10.1323  -11.5572 C   0  0  0  0  0  0  0  0  0  0  0  0
   -7.4876  -10.1728  -11.8747 C   0  0  0  0  0  0  0  0  0  0  0  0
   -6.9853  -11.0920  -12.8047 C   0  0  0  0  0  0  0  0  0  0  0  0
   -7.8632  -11.9685  -13.4064 C   0  0  0  0  0  0  0  0  0  0  0  0
   -9.2191  -11.9127  -13.0716 C   0  0  0  0  0  0  0  0  0  0  0  0
   -5.5655  -11.0988  -13.1090 C   0  0  0  0  0  0  0  0  0  0  0  0
   -5.1023  -11.9221  -13.9313 O   0  0  0  0  0  0  0  0  0  0  0  0
   -4.6677  -10.1880  -12.4954 N   0  0  0  0  0  0  0  0  0  0  0  0
   -3.5024   -9.7045  -13.2225 C   0  0  0  0  0  0  0  0  0  0  0  0
   -3.1885  -10.6721  -14.3219 C   0  0  0  0  0  0  0  0  0  0  0  0
   -2.0321  -10.2459  -15.1387 C   0  0  0  0  0  0  0  0  0  0  0  0
   -1.4683   -9.1444  -14.9826 O   0  0  0  0  0  0  0  0  0  0  0  0
   -1.5584  -11.1040  -16.1138 O   0  0  0  0  0  0  0  0  0  0  0  0
  -12.0094  -11.2002  -12.9798 N   0  0  0  0  0  0  0  0  0  0  0  0
  -12.7527  -10.2517  -13.6715 C   0  0  0  0  0  0  0  0  0  0  0  0
  -13.4225  -10.5759  -14.8432 C   0  0  0  0  0  0  0  0  0  0  0  0
  -14.1470   -9.7110  -15.5403 N   0  0  0  0  0  0  0  0  0  0  0  0
  -14.2845   -8.4274  -15.1473 C   0  0  0  0  0  0  0  0  0  0  0  0
  -13.6319   -8.0689  -13.9856 C   0  0  0  0  0  0  0  0  0  0  0  0
  -12.8776   -8.9541  -13.2527 C   0  0  0  0  0  0  0  0  0  0  0  0
  -15.0629   -7.4805  -15.8880 N   0  0  0  0  0  0  0  0  0  0  0  0
  -15.3935   -7.5273  -17.1964 C   0  0  0  0  0  0  0  0  0  0  0  0
  -16.1523   -6.4279  -17.5282 C   0  0  0  0  0  0  0  0  0  0  0  0
  -16.2831   -5.7058  -16.4061 N   0  0  0  0  0  0  0  0  0  0  0  0
  -15.6195   -6.3502  -15.4144 C   0  0  0  0  0  0  0  0  0  0  0  0
  -16.7336   -6.0676  -18.8493 C   0  0  0  0  0  0  0  0  0  0  0  0
  -17.3940   -7.1524  -19.4267 F   0  0  0  0  0  0  0  0  0  0  0  0
  -17.5794   -4.9923  -18.7353 F   0  0  0  0  0  0  0  0  0  0  0  0
  -15.6870   -5.7237  -19.6767 F   0  0  0  0  0  0  0  0  0  0  0  0
  -11.7907  -13.2707   -8.0585 C   0  0  0  0  0  0  0  0  0  0  0  0
  1  2  1  0
  2  3  1  0
  3  4  1  0
  4  5  1  0
  4  6  1  0
  6  7  1  0
  7  8  2  0
  8  9  1  0
  9 10  2  0
 10 11  1  0
 11 12  2  0
 10 13  1  0
 13 14  2  0
 13 15  1  0
 15 16  1  0
 16 17  1  0
 17 18  1  0
 18 19  2  0
 18 20  1  0
  6 21  1  0
 21 22  1  0
 22 23  2  0
 23 24  1  0
 24 25  2  0
 25 26  1  0
 26 27  2  0
 25 28  1  0
 28 29  1  0
 29 30  2  0
 30 31  1  0
 31 32  2  0
 30 33  1  0
 33 34  1  0
 33 35  1  0
 33 36  1  0
  2 37  1  0
  5  2  1  0
 12  7  1  0
 27 22  1  0
 32 28  1  0
M  END
$$$$
