
     RDKit          3D

 37 40  0  0  0  0  0  0  0  0999 V2000
  -10.1062  -11.5780   -7.1815 C   0  0  0  0  0  0  0  0  0  0  0  0
   -9.9653  -12.6195   -8.2670 C   0  0  0  0  0  0  0  0  0  0  0  0
  -11.1422  -12.5382   -9.2161 C   0  0  0  0  0  0  0  0  0  0  0  0
  -10.1701  -12.6281  -10.3670 C   0  0  0  0  0  0  0  0  0  0  0  0
   -9.0659  -12.2471   -9.4039 C   0  0  0  0  0  0  0  0  0  0  0  0
  -10.4082  -11.6049  -11.4634 C   0  0  0  0  0  0  0  0  0  0  0  0
   -9.1474  -11.3223  -12.1532 C   0  0  0  0  0  0  0  0  0  0  0  0
   -8.5749  -12.2226  -13.0274 C   0  0  0  0  0  0  0  0  0  0  0  0
   -7.3834  -11.9236  -13.6493 C   0  0  0  0  0  0  0  0  0  0  0  0
   -6.7229  -10.7104  -13.4167 C   0  0  0  0  0  0  0  0  0  0  0  0
   -7.2907   -9.8067  -12.5438 C   0  0  0  0  0  0  0  0  0  0  0  0
   -8.5007  -10.1276  -11.9218 C   0  0  0  0  0  0  0  0  0  0  0  0
   -5.4681  -10.4373  -14.0945 C   0  0  0  0  0  0  0  0  0  0  0  0
   -5.2272  -10.9602  -15.2067 O   0  0  0  0  0  0  0  0  0  0  0  0
   -4.4870   -9.5826  -13.5299 N   0  0  0  0  0  0  0  0  0  0  0  0
   -3.7386   -8.6646  -14.3771 C   0  0  0  0  0  0  0  0  0  0  0  0
   -2.7124   -9.4452  -15.1393 C   0  0  0  0  0  0  0  0  0  0  0  0
   -2.8385   -9.2699  -16.6020 C   0  0  0  0  0  0  0  0  0  0  0  0
   -2.1919   -9.9550  -17.4194 O   0  0  0  0  0  0  0  0  0  0  0  0
   -3.7083   -8.3077  -17.0807 O   0  0  0  0  0  0  0  0  0  0  0  0
  -11.5042  -11.9742  -12.3143 N   0  0  0  0  0  0  0  0  0  0  0  0
  -12.1820  -11.1752  -13.2268 C   0  0  0  0  0  0  0  0  0  0  0  0
  -11.9585   -9.8067  -13.2914 C   0  0  0  0  0  0  0  0  0  0  0  0
  -12.5755   -8.9995  -14.1437 N   0  0  0  0  0  0  0  0  0  0  0  0
  -13.4836   -9.4662  -15.0261 C   0  0  0  0  0  0  0  0  0  0  0  0
  -13.7316  -10.8230  -14.9907 C   0  0  0  0  0  0  0  0  0  0  0  0
  -13.0998  -11.6719  -14.1131 C   0  0  0  0  0  0  0  0  0  0  0  0
  -14.1590   -8.6086  -15.9532 N   0  0  0  0  0  0  0  0  0  0  0  0
  -14.0396   -7.2692  -16.0765 C   0  0  0  0  0  0  0  0  0  0  0  0
  -14.8576   -6.8162  -17.0865 C   0  0  0  0  0  0  0  0  0  0  0  0
  -15.4807   -7.8953  -17.5815 N   0  0  0  0  0  0  0  0  0  0  0  0
  -15.0522   -8.9799  -16.8893 C   0  0  0  0  0  0  0  0  0  0  0  0
  -15.0481   -5.4223  -17.5700 C   0  0  0  0  0  0  0  0  0  0  0  0
  -16.1705   -5.3186  -18.3920 F   0  0  0  0  0  0  0  0  0  0  0  0
  -15.1384   -4.5467  -16.5166 F   0  0  0  0  0  0  0  0  0  0  0  0
  -13.9426   -5.0964  -18.3248 F   0  0  0  0  0  0  0  0  0  0  0  0
   -9.6753  -14.0093   -7.7609 C   0  0  0  0  0  0  0  0  0  0  0  0
  1  2  1  0
  2  3  1  0
  3  4  1  0
  4  5  1  0
  4  6  1  0
  6  7  1  0
  7  8  2  0
  8  9  1  0
  9 10  2  0
 10 11  1  0
 11 12  2  0
 10 13  1  0
 13 14  2  0
 13 15  1  0
 15 16  1  0
 16 17  1  0
 17 18  1  0
 18 19  2  0
 18 20  1  0
  6 21  1  0
 21 22  1  0
 22 23  2  0
 23 24  1  0
 24 25  2  0
 25 26  1  0
 26 27  2  0
 25 28  1  0
 28 29  1  0
 29 30  2  0
 30 31  1  0
 31 32  2  0
 30 33  1  0
 33 34  1  0
 33 35  1  0
 33 36  1  0
  2 37  1  0
  5  2  1  0
 12  7  1  0
 27 22  1  0
 32 28  1  0
M  END
$$$$
