
     RDKit          3D

 26 30  0  0  0  0  0  0  0  0999 V2000
   -1.1682    2.9202    5.1098 O   0  0  0  0  0  0  0  0  0  0  0  0
   -0.0966    3.3867    5.6326 C   0  0  0  0  0  0  0  0  0  0  0  0
    0.0316    4.8476    5.6935 C   0  0  0  0  0  0  0  0  0  0  0  0
    0.9595    5.3452    4.6041 C   0  0  0  0  0  0  0  0  0  0  0  0
    1.7131    4.6929    3.7426 C   0  0  0  0  0  0  0  0  0  0  0  0
    2.4598    5.3795    2.8567 C   0  0  0  0  0  0  0  0  0  0  0  0
    2.4166    6.7333    2.8738 C   0  0  0  0  0  0  0  0  0  0  0  0
    1.2366    7.0371    4.2399 S   0  0  0  0  0  0  0  0  0  0  0  0
    0.6043    5.3302    6.9707 C   0  0  0  0  0  0  0  0  0  0  0  0
    1.7993    5.1665    7.5520 C   0  0  0  0  0  0  0  0  0  0  0  0
    2.0606    5.7183    8.7348 C   0  0  0  0  0  0  0  0  0  0  0  0
    1.0613    6.4560    9.3276 C   0  0  0  0  0  0  0  0  0  0  0  0
   -0.2707    6.3201    8.1076 S   0  0  0  0  0  0  0  0  0  0  0  0
   -1.1823    5.4952    5.4350 O   0  0  0  0  0  0  0  0  0  0  0  0
    0.8039    2.4648    6.0735 O   0  0  0  0  0  0  0  0  0  0  0  0
    0.7132    1.0632    5.7782 C   0  0  2  0  0  0  0  0  0  0  0  0
    0.7820    0.2777    7.0519 C   0  0  0  0  0  0  0  0  0  0  0  0
    1.4836   -1.0224    6.9695 C   0  0  2  0  0  0  0  0  0  0  0  0
    3.0009   -0.8083    6.9998 C   0  0  2  0  0  0  0  0  0  0  0  0
    3.4364   -0.7849    5.5687 C   0  0  2  0  0  0  0  0  0  0  0  0
    2.1107   -0.8055    4.8345 C   0  0  2  0  0  0  0  0  0  0  0  0
    1.6395    0.6102    4.7138 C   0  0  0  0  0  0  0  0  0  0  0  0
    1.2906   -1.6396    5.6695 N   0  0  0  0  0  4  0  0  0  0  0  0
    1.8129   -2.9895    5.6096 C   0  0  0  0  0  0  0  0  0  0  0  0
   -0.0920   -1.6948    5.2685 C   0  0  0  0  0  0  0  0  0  0  0  0
    3.8151   -1.7745    6.4288 O   0  0  0  0  0  0  0  0  0  0  0  0
  1  2  2  0
  2  3  1  0
  3  4  1  0
  4  5  2  0
  5  6  1  0
  6  7  2  0
  7  8  1  0
  3  9  1  0
  9 10  2  0
 10 11  1  0
 11 12  2  0
 12 13  1  0
  3 14  1  0
  2 15  1  0
 16 15  1  1
 16 17  1  0
 18 17  1  6
 18 19  1  0
 19 20  1  0
 20 21  1  0
 21 22  1  1
 21 23  1  0
 23 24  1  0
 23 25  1  0
 20 26  1  6
  8  4  1  0
 13  9  1  0
 22 16  1  0
 23 18  1  0
 19 26  1  1
M  CHG  1  23   1
M  END
$$$$
