
     RDKit          3D

 26 30  0  0  0  0  0  0  0  0999 V2000
   -0.9840    2.8826    5.1760 O   0  0  0  0  0  0  0  0  0  0  0  0
    0.1747    3.4182    5.2752 C   0  0  0  0  0  0  0  0  0  0  0  0
    0.2238    4.8817    5.3759 C   0  0  0  0  0  0  0  0  0  0  0  0
    1.2893    5.4419    4.4561 C   0  0  0  0  0  0  0  0  0  0  0  0
    2.2612    6.3029    4.6788 C   0  0  0  0  0  0  0  0  0  0  0  0
    3.0927    6.6435    3.6755 C   0  0  0  0  0  0  0  0  0  0  0  0
    2.9075    6.0880    2.4540 C   0  0  0  0  0  0  0  0  0  0  0  0
    1.4566    5.0157    2.7642 S   0  0  0  0  0  0  0  0  0  0  0  0
    0.5628    5.3618    6.7348 C   0  0  0  0  0  0  0  0  0  0  0  0
    1.0469    4.7490    7.8225 C   0  0  0  0  0  0  0  0  0  0  0  0
    1.2620    5.4291    8.9463 C   0  0  0  0  0  0  0  0  0  0  0  0
    0.9690    6.7739    8.9422 C   0  0  0  0  0  0  0  0  0  0  0  0
    0.3704    7.0159    7.2498 S   0  0  0  0  0  0  0  0  0  0  0  0
   -0.9621    5.4812    4.9355 O   0  0  0  0  0  0  0  0  0  0  0  0
    1.2321    2.5596    5.2755 O   0  0  0  0  0  0  0  0  0  0  0  0
    1.0973    1.1352    5.1617 C   0  0  2  0  0  0  0  0  0  0  0  0
    1.2036    0.5122    6.5198 C   0  0  0  0  0  0  0  0  0  0  0  0
    1.8715   -0.8071    6.5724 C   0  0  2  0  0  0  0  0  0  0  0  0
    3.3932   -0.6329    6.5146 C   0  0  2  0  0  0  0  0  0  0  0  0
    3.7666   -0.7991    5.0755 C   0  0  2  0  0  0  0  0  0  0  0  0
    2.4102   -0.8740    4.4035 C   0  0  2  0  0  0  0  0  0  0  0  0
    1.9661    0.5283    4.1259 C   0  0  0  0  0  0  0  0  0  0  0  0
    1.6086   -1.5751    5.3686 N   0  0  0  0  0  4  0  0  0  0  0  0
    2.0973   -2.9359    5.4570 C   0  0  0  0  0  0  0  0  0  0  0  0
    0.2090   -1.6413    5.0336 C   0  0  0  0  0  0  0  0  0  0  0  0
    4.1600   -1.6846    6.0365 O   0  0  0  0  0  0  0  0  0  0  0  0
  1  2  2  0
  2  3  1  0
  3  4  1  0
  4  5  2  0
  5  6  1  0
  6  7  2  0
  7  8  1  0
  3  9  1  0
  9 10  2  0
 10 11  1  0
 11 12  2  0
 12 13  1  0
  3 14  1  0
  2 15  1  0
 16 15  1  1
 16 17  1  0
 18 17  1  6
 18 19  1  0
 19 20  1  0
 20 21  1  0
 21 22  1  1
 21 23  1  0
 23 24  1  0
 23 25  1  0
 20 26  1  1
  8  4  1  0
 13  9  1  0
 22 16  1  0
 23 18  1  0
 19 26  1  1
M  CHG  1  23   1
M  END
$$$$
