
     RDKit          3D

 26 30  0  0  0  0  0  0  0  0999 V2000
   -1.2207    2.7389    5.6316 O   0  0  0  0  0  0  0  0  0  0  0  0
   -0.0678    3.2554    5.4234 C   0  0  0  0  0  0  0  0  0  0  0  0
    0.0145    4.7209    5.4279 C   0  0  0  0  0  0  0  0  0  0  0  0
    1.0565    5.1974    4.4368 C   0  0  0  0  0  0  0  0  0  0  0  0
    0.9399    5.8914    3.3231 C   0  0  0  0  0  0  0  0  0  0  0  0
    2.0404    6.1943    2.6083 C   0  0  0  0  0  0  0  0  0  0  0  0
    3.2483    5.7750    3.0559 C   0  0  0  0  0  0  0  0  0  0  0  0
    2.7762    4.8957    4.5905 S   0  0  0  0  0  0  0  0  0  0  0  0
    0.4128    5.2787    6.7402 C   0  0  0  0  0  0  0  0  0  0  0  0
    0.7695    4.7123    7.8998 C   0  0  0  0  0  0  0  0  0  0  0  0
    1.0833    5.4620    8.9540 C   0  0  0  0  0  0  0  0  0  0  0  0
    1.0263    6.8288    8.8024 C   0  0  0  0  0  0  0  0  0  0  0  0
    0.5011    6.9868    7.0761 S   0  0  0  0  0  0  0  0  0  0  0  0
   -1.1745    5.3176    4.9920 O   0  0  0  0  0  0  0  0  0  0  0  0
    0.9532    2.3768    5.2210 O   0  0  0  0  0  0  0  0  0  0  0  0
    0.8062    0.9528    5.3237 C   0  0  2  0  0  0  0  0  0  0  0  0
    1.0218    0.5284    6.7441 C   0  0  0  0  0  0  0  0  0  0  0  0
    1.6888   -0.7791    6.9312 C   0  0  2  0  0  0  0  0  0  0  0  0
    3.2010   -0.6362    6.7266 C   0  0  2  0  0  0  0  0  0  0  0  0
    3.4551   -1.0113    5.3008 C   0  0  2  0  0  0  0  0  0  0  0  0
    2.0482   -1.1622    4.7580 C   0  0  2  0  0  0  0  0  0  0  0  0
    1.5861    0.1922    4.3190 C   0  0  0  0  0  0  0  0  0  0  0  0
    1.3265   -1.7072    5.8750 N   0  0  0  0  0  4  0  0  0  0  0  0
    1.8177   -3.0482    6.1179 C   0  0  0  0  0  0  0  0  0  0  0  0
   -0.0960   -1.8009    5.6669 C   0  0  0  0  0  0  0  0  0  0  0  0
    3.9237   -1.7560    6.3440 O   0  0  0  0  0  0  0  0  0  0  0  0
  1  2  2  0
  2  3  1  0
  3  4  1  0
  4  5  2  0
  5  6  1  0
  6  7  2  0
  7  8  1  0
  3  9  1  0
  9 10  2  0
 10 11  1  0
 11 12  2  0
 12 13  1  0
  3 14  1  0
  2 15  1  0
 16 15  1  1
 16 17  1  0
 18 17  1  6
 18 19  1  0
 19 20  1  0
 20 21  1  0
 21 22  1  1
 21 23  1  0
 23 24  1  0
 23 25  1  0
 20 26  1  1
  8  4  1  0
 13  9  1  0
 22 16  1  0
 23 18  1  0
 19 26  1  1
M  CHG  1  23   1
M  END
$$$$
