
     RDKit          3D

 26 30  0  0  0  0  0  0  0  0999 V2000
   -1.3994    2.8107    5.0373 O   0  0  0  0  0  0  0  0  0  0  0  0
   -0.3843    3.1885    5.7199 C   0  0  0  0  0  0  0  0  0  0  0  0
   -0.0766    4.6237    5.7143 C   0  0  0  0  0  0  0  0  0  0  0  0
    0.9325    4.9463    4.6314 C   0  0  0  0  0  0  0  0  0  0  0  0
    1.5926    4.1649    3.8011 C   0  0  0  0  0  0  0  0  0  0  0  0
    2.4480    4.7072    2.9133 C   0  0  0  0  0  0  0  0  0  0  0  0
    2.6091    6.0521    2.8962 C   0  0  0  0  0  0  0  0  0  0  0  0
    1.4671    6.5669    4.2311 S   0  0  0  0  0  0  0  0  0  0  0  0
    0.5201    5.0974    6.9838 C   0  0  0  0  0  0  0  0  0  0  0  0
    1.5215    4.6396    7.7456 C   0  0  0  0  0  0  0  0  0  0  0  0
    1.8620    5.2670    8.8691 C   0  0  0  0  0  0  0  0  0  0  0  0
    1.1487    6.3937    9.2100 C   0  0  0  0  0  0  0  0  0  0  0  0
   -0.0333    6.5098    7.8423 S   0  0  0  0  0  0  0  0  0  0  0  0
   -1.1937    5.4017    5.3876 O   0  0  0  0  0  0  0  0  0  0  0  0
    0.2947    2.2063    6.3752 O   0  0  0  0  0  0  0  0  0  0  0  0
    0.3362    0.8410    5.9344 C   0  0  2  0  0  0  0  0  0  0  0  0
    0.9272   -0.0153    7.0121 C   0  0  0  0  0  0  0  0  0  0  0  0
    1.7612   -1.1469    6.5505 C   0  0  2  0  0  0  0  0  0  0  0  0
    3.1567   -0.6502    6.1566 C   0  0  2  0  0  0  0  0  0  0  0  0
    3.1071   -0.4307    4.6776 C   0  0  2  0  0  0  0  0  0  0  0  0
    1.6377   -0.6457    4.3751 C   0  0  2  0  0  0  0  0  0  0  0  0
    0.9366    0.6590    4.5918 C   0  0  0  0  0  0  0  0  0  0  0  0
    1.2657   -1.6845    5.2961 N   0  0  0  0  0  4  0  0  0  0  0  0
    1.9471   -2.9009    4.9024 C   0  0  0  0  0  0  0  0  0  0  0  0
   -0.1460   -1.9707    5.3209 C   0  0  0  0  0  0  0  0  0  0  0  0
    3.8890   -1.3948    5.2446 O   0  0  0  0  0  0  0  0  0  0  0  0
  1  2  2  0
  2  3  1  0
  3  4  1  0
  4  5  2  0
  5  6  1  0
  6  7  2  0
  7  8  1  0
  3  9  1  0
  9 10  2  0
 10 11  1  0
 11 12  2  0
 12 13  1  0
  3 14  1  0
  2 15  1  0
 16 15  1  1
 16 17  1  0
 18 17  1  6
 18 19  1  0
 19 20  1  0
 20 21  1  0
 21 22  1  1
 21 23  1  0
 23 24  1  0
 23 25  1  0
 20 26  1  6
  8  4  1  0
 13  9  1  0
 22 16  1  0
 23 18  1  0
 19 26  1  6
M  CHG  1  23   1
M  END
$$$$
