
     RDKit          3D

 26 30  0  0  0  0  0  0  0  0999 V2000
   -0.4839    3.4562    4.7374 O   0  0  0  0  0  0  0  0  0  0  0  0
    0.3442    3.2389    5.6893 C   0  0  0  0  0  0  0  0  0  0  0  0
    1.3956    4.2417    5.8974 C   0  0  0  0  0  0  0  0  0  0  0  0
    0.8558    5.4231    6.6773 C   0  0  0  0  0  0  0  0  0  0  0  0
   -0.3490    5.6737    7.1476 C   0  0  0  0  0  0  0  0  0  0  0  0
   -0.5766    6.8169    7.8221 C   0  0  0  0  0  0  0  0  0  0  0  0
    0.4464    7.6866    8.0015 C   0  0  0  0  0  0  0  0  0  0  0  0
    1.8128    6.8124    7.1530 S   0  0  0  0  0  0  0  0  0  0  0  0
    1.9313    4.7962    4.6334 C   0  0  0  0  0  0  0  0  0  0  0  0
    2.9347    4.4237    3.8290 C   0  0  0  0  0  0  0  0  0  0  0  0
    3.2162    5.1171    2.7282 C   0  0  0  0  0  0  0  0  0  0  0  0
    2.4403    6.2207    2.4556 C   0  0  0  0  0  0  0  0  0  0  0  0
    1.2881    6.2160    3.8533 S   0  0  0  0  0  0  0  0  0  0  0  0
    2.4411    3.7536    6.6903 O   0  0  0  0  0  0  0  0  0  0  0  0
    0.1496    2.0941    6.4012 O   0  0  0  0  0  0  0  0  0  0  0  0
    0.3836    0.7810    5.8711 C   0  0  2  0  0  0  0  0  0  0  0  0
    0.9914   -0.0858    6.9309 C   0  0  0  0  0  0  0  0  0  0  0  0
    1.9843   -1.0771    6.4608 C   0  0  2  0  0  0  0  0  0  0  0  0
    3.3364   -0.3977    6.2171 C   0  0  2  0  0  0  0  0  0  0  0  0
    3.3689   -0.0696    4.7579 C   0  0  2  0  0  0  0  0  0  0  0  0
    1.9609   -0.4234    4.3228 C   0  0  2  0  0  0  0  0  0  0  0  0
    1.0972    0.7734    4.5723 C   0  0  0  0  0  0  0  0  0  0  0  0
    1.6480   -1.5665    5.1358 N   0  0  0  0  0  4  0  0  0  0  0  0
    2.4946   -2.6641    4.7150 C   0  0  0  0  0  0  0  0  0  0  0  0
    0.2817   -2.0101    5.0259 C   0  0  0  0  0  0  0  0  0  0  0  0
    4.2156   -0.9816    5.3179 O   0  0  0  0  0  0  0  0  0  0  0  0
  1  2  2  0
  2  3  1  0
  3  4  1  0
  4  5  2  0
  5  6  1  0
  6  7  2  0
  7  8  1  0
  3  9  1  0
  9 10  2  0
 10 11  1  0
 11 12  2  0
 12 13  1  0
  3 14  1  0
  2 15  1  0
 16 15  1  1
 16 17  1  0
 18 17  1  6
 18 19  1  0
 19 20  1  0
 20 21  1  0
 21 22  1  1
 21 23  1  0
 23 24  1  0
 23 25  1  0
 20 26  1  6
  8  4  1  0
 13  9  1  0
 22 16  1  0
 23 18  1  0
 19 26  1  6
M  CHG  1  23   1
M  END
$$$$
