
     RDKit          3D

 26 30  0  0  0  0  0  0  0  0999 V2000
   -0.9688    2.5358    5.5406 O   0  0  0  0  0  0  0  0  0  0  0  0
    0.1136    3.0870    5.1356 C   0  0  0  0  0  0  0  0  0  0  0  0
    0.1310    4.5535    5.0772 C   0  0  0  0  0  0  0  0  0  0  0  0
    1.2223    5.0350    4.1432 C   0  0  0  0  0  0  0  0  0  0  0  0
    2.2497    4.4038    3.6125 C   0  0  0  0  0  0  0  0  0  0  0  0
    3.0904    5.0677    2.7962 C   0  0  0  0  0  0  0  0  0  0  0  0
    2.8566    6.3771    2.5394 C   0  0  0  0  0  0  0  0  0  0  0  0
    1.3433    6.6712    3.5265 S   0  0  0  0  0  0  0  0  0  0  0  0
    0.4053    5.1863    6.3874 C   0  0  0  0  0  0  0  0  0  0  0  0
    0.3216    4.7426    7.6479 C   0  0  0  0  0  0  0  0  0  0  0  0
    0.6303    5.5377    8.6699 C   0  0  0  0  0  0  0  0  0  0  0  0
    1.0348    6.8206    8.3784 C   0  0  0  0  0  0  0  0  0  0  0  0
    0.9511    6.8316    6.5690 S   0  0  0  0  0  0  0  0  0  0  0  0
   -1.0471    5.0740    4.5285 O   0  0  0  0  0  0  0  0  0  0  0  0
    1.1279    2.2404    4.8045 O   0  0  0  0  0  0  0  0  0  0  0  0
    1.0573    0.8161    4.9669 C   0  0  2  0  0  0  0  0  0  0  0  0
    0.9592    0.4827    6.4240 C   0  0  0  0  0  0  0  0  0  0  0  0
    1.6497   -0.7550    6.8492 C   0  0  2  0  0  0  0  0  0  0  0  0
    3.1542   -0.4998    6.9917 C   0  0  2  0  0  0  0  0  0  0  0  0
    3.7629   -0.9240    5.6925 C   0  0  2  0  0  0  0  0  0  0  0  0
    2.5376   -1.2163    4.8498 C   0  0  2  0  0  0  0  0  0  0  0  0
    2.1020    0.0722    4.2245 C   0  0  0  0  0  0  0  0  0  0  0  0
    1.6108   -1.7614    5.8034 N   0  0  0  0  0  4  0  0  0  0  0  0
    2.1200   -3.0440    6.2442 C   0  0  0  0  0  0  0  0  0  0  0  0
    0.2875   -1.9812    5.2780 C   0  0  0  0  0  0  0  0  0  0  0  0
    4.0207   -1.5746    6.8641 O   0  0  0  0  0  0  0  0  0  0  0  0
  1  2  2  0
  2  3  1  0
  3  4  1  0
  4  5  2  0
  5  6  1  0
  6  7  2  0
  7  8  1  0
  3  9  1  0
  9 10  2  0
 10 11  1  0
 11 12  2  0
 12 13  1  0
  3 14  1  0
  2 15  1  0
 16 15  1  1
 16 17  1  0
 18 17  1  6
 18 19  1  0
 19 20  1  0
 20 21  1  0
 21 22  1  1
 21 23  1  0
 23 24  1  0
 23 25  1  0
 20 26  1  1
  8  4  1  0
 13  9  1  0
 22 16  1  0
 23 18  1  0
 19 26  1  1
M  CHG  1  23   1
M  END
$$$$
