
     RDKit          3D

 26 30  0  0  0  0  0  0  0  0999 V2000
   -0.8497    3.2221    4.7269 O   0  0  0  0  0  0  0  0  0  0  0  0
   -0.1348    3.4353    5.7674 C   0  0  0  0  0  0  0  0  0  0  0  0
    0.3268    4.8113    5.9860 C   0  0  0  0  0  0  0  0  0  0  0  0
    1.4784    5.1389    5.0578 C   0  0  0  0  0  0  0  0  0  0  0  0
    2.7730    4.9238    5.1734 C   0  0  0  0  0  0  0  0  0  0  0  0
    3.6043    5.3163    4.1891 C   0  0  0  0  0  0  0  0  0  0  0  0
    3.0846    5.9266    3.0971 C   0  0  0  0  0  0  0  0  0  0  0  0
    1.3006    5.9373    3.5075 S   0  0  0  0  0  0  0  0  0  0  0  0
    0.8281    5.0473    7.3590 C   0  0  0  0  0  0  0  0  0  0  0  0
    1.5015    4.2813    8.2264 C   0  0  0  0  0  0  0  0  0  0  0  0
    1.8340    4.7471    9.4282 C   0  0  0  0  0  0  0  0  0  0  0  0
    1.4603    6.0352    9.7372 C   0  0  0  0  0  0  0  0  0  0  0  0
    0.6095    6.5459    8.2218 S   0  0  0  0  0  0  0  0  0  0  0  0
   -0.6556    5.7551    5.6633 O   0  0  0  0  0  0  0  0  0  0  0  0
    0.1142    2.3515    6.5539 O   0  0  0  0  0  0  0  0  0  0  0  0
    0.3997    1.0439    6.0354 C   0  0  2  0  0  0  0  0  0  0  0  0
    1.1937    0.2687    7.0416 C   0  0  0  0  0  0  0  0  0  0  0  0
    2.2096   -0.6536    6.4878 C   0  0  2  0  0  0  0  0  0  0  0  0
    3.4629    0.1257    6.0741 C   0  0  2  0  0  0  0  0  0  0  0  0
    3.3046    0.4029    4.6125 C   0  0  2  0  0  0  0  0  0  0  0  0
    1.8927   -0.0811    4.3499 C   0  0  2  0  0  0  0  0  0  0  0  0
    0.9625    1.0487    4.6645 C   0  0  0  0  0  0  0  0  0  0  0  0
    1.7714   -1.2162    5.2230 N   0  0  0  0  0  4  0  0  0  0  0  0
    2.6571   -2.2547    4.7376 C   0  0  0  0  0  0  0  0  0  0  0  0
    0.4446   -1.7745    5.2810 C   0  0  0  0  0  0  0  0  0  0  0  0
    4.2836   -0.4157    5.0963 O   0  0  0  0  0  0  0  0  0  0  0  0
  1  2  2  0
  2  3  1  0
  3  4  1  0
  4  5  2  0
  5  6  1  0
  6  7  2  0
  7  8  1  0
  3  9  1  0
  9 10  2  0
 10 11  1  0
 11 12  2  0
 12 13  1  0
  3 14  1  0
  2 15  1  0
 16 15  1  1
 16 17  1  0
 18 17  1  6
 18 19  1  0
 19 20  1  0
 20 21  1  0
 21 22  1  1
 21 23  1  0
 23 24  1  0
 23 25  1  0
 20 26  1  6
  8  4  1  0
 13  9  1  0
 22 16  1  0
 23 18  1  0
 19 26  1  6
M  CHG  1  23   1
M  END
$$$$
