
     RDKit          3D

 26 30  0  0  0  0  0  0  0  0999 V2000
   -0.5844    3.0380    4.2068 O   0  0  0  0  0  0  0  0  0  0  0  0
    0.0370    2.8311    5.3070 C   0  0  0  0  0  0  0  0  0  0  0  0
    1.0149    3.8453    5.7187 C   0  0  0  0  0  0  0  0  0  0  0  0
    0.3330    4.9609    6.4838 C   0  0  0  0  0  0  0  0  0  0  0  0
   -0.9374    5.2967    6.5781 C   0  0  0  0  0  0  0  0  0  0  0  0
   -1.2938    6.3493    7.3391 C   0  0  0  0  0  0  0  0  0  0  0  0
   -0.3301    7.0410    7.9931 C   0  0  0  0  0  0  0  0  0  0  0  0
    1.1732    6.1277    7.4862 S   0  0  0  0  0  0  0  0  0  0  0  0
    1.7006    4.4919    4.5769 C   0  0  0  0  0  0  0  0  0  0  0  0
    2.8330    4.2135    3.9189 C   0  0  0  0  0  0  0  0  0  0  0  0
    3.2353    4.9773    2.9056 C   0  0  0  0  0  0  0  0  0  0  0  0
    2.4461    6.0529    2.5671 C   0  0  0  0  0  0  0  0  0  0  0  0
    1.1001    5.9162    3.7715 S   0  0  0  0  0  0  0  0  0  0  0  0
    1.9571    3.3349    6.6196 O   0  0  0  0  0  0  0  0  0  0  0  0
   -0.2860    1.6858    5.9697 O   0  0  0  0  0  0  0  0  0  0  0  0
    0.0960    0.3764    5.5230 C   0  0  2  0  0  0  0  0  0  0  0  0
    0.8874   -0.3074    6.5955 C   0  0  0  0  0  0  0  0  0  0  0  0
    1.9775   -1.1912    6.1268 C   0  0  2  0  0  0  0  0  0  0  0  0
    3.2017   -0.3581    5.7312 C   0  0  2  0  0  0  0  0  0  0  0  0
    3.0930   -0.1531    4.2532 C   0  0  2  0  0  0  0  0  0  0  0  0
    1.7238   -0.7299    3.9539 C   0  0  2  0  0  0  0  0  0  0  0  0
    0.7179    0.3558    4.1780 C   0  0  0  0  0  0  0  0  0  0  0  0
    1.6286   -1.8319    4.8715 N   0  0  0  0  0  4  0  0  0  0  0  0
    2.5925   -2.8364    4.4708 C   0  0  0  0  0  0  0  0  0  0  0  0
    0.3344   -2.4641    4.8990 C   0  0  0  0  0  0  0  0  0  0  0  0
    4.0944   -0.8914    4.8141 O   0  0  0  0  0  0  0  0  0  0  0  0
  1  2  2  0
  2  3  1  0
  3  4  1  0
  4  5  2  0
  5  6  1  0
  6  7  2  0
  7  8  1  0
  3  9  1  0
  9 10  2  0
 10 11  1  0
 11 12  2  0
 12 13  1  0
  3 14  1  0
  2 15  1  0
 16 15  1  1
 16 17  1  0
 18 17  1  6
 18 19  1  0
 19 20  1  0
 20 21  1  0
 21 22  1  1
 21 23  1  0
 23 24  1  0
 23 25  1  0
 20 26  1  6
  8  4  1  0
 13  9  1  0
 22 16  1  0
 23 18  1  0
 19 26  1  6
M  CHG  1  23   1
M  END
$$$$
