
     RDKit          3D

 26 30  0  0  0  0  0  0  0  0999 V2000
   -1.2180    2.8314    5.6910 O   0  0  0  0  0  0  0  0  0  0  0  0
   -0.1894    3.2663    5.0649 C   0  0  0  0  0  0  0  0  0  0  0  0
    0.0132    4.7199    5.0485 C   0  0  0  0  0  0  0  0  0  0  0  0
    1.1516    5.0871    4.1188 C   0  0  0  0  0  0  0  0  0  0  0  0
    1.1594    5.3974    2.8385 C   0  0  0  0  0  0  0  0  0  0  0  0
    2.3248    5.6921    2.2312 C   0  0  0  0  0  0  0  0  0  0  0  0
    3.4679    5.6619    2.9574 C   0  0  0  0  0  0  0  0  0  0  0  0
    2.8326    5.1830    4.6061 S   0  0  0  0  0  0  0  0  0  0  0  0
    0.3725    5.2738    6.3738 C   0  0  0  0  0  0  0  0  0  0  0  0
    0.7594    6.4904    6.7775 C   0  0  0  0  0  0  0  0  0  0  0  0
    1.0321    6.7261    8.0588 C   0  0  0  0  0  0  0  0  0  0  0  0
    0.9006    5.6777    8.9408 C   0  0  0  0  0  0  0  0  0  0  0  0
    0.3673    4.3381    7.8444 S   0  0  0  0  0  0  0  0  0  0  0  0
   -1.0924    5.4011    4.5258 O   0  0  0  0  0  0  0  0  0  0  0  0
    0.6007    2.3210    4.4840 O   0  0  0  0  0  0  0  0  0  0  0  0
    0.5892    0.9364    4.8617 C   0  0  2  0  0  0  0  0  0  0  0  0
    0.8392    0.8169    6.3338 C   0  0  0  0  0  0  0  0  0  0  0  0
    1.6266   -0.3613    6.7596 C   0  0  2  0  0  0  0  0  0  0  0  0
    3.1191   -0.1196    6.5086 C   0  0  2  0  0  0  0  0  0  0  0  0
    3.4125   -0.7379    5.1782 C   0  0  2  0  0  0  0  0  0  0  0  0
    2.0281   -1.1222    4.6960 C   0  0  2  0  0  0  0  0  0  0  0  0
    1.4411    0.0723    4.0109 C   0  0  0  0  0  0  0  0  0  0  0  0
    1.3576   -1.5060    5.9078 N   0  0  0  0  0  4  0  0  0  0  0  0
    1.9730   -2.7226    6.3974 C   0  0  0  0  0  0  0  0  0  0  0  0
   -0.0488   -1.7711    5.7431 C   0  0  0  0  0  0  0  0  0  0  0  0
    3.9461   -1.2194    6.3384 O   0  0  0  0  0  0  0  0  0  0  0  0
  1  2  2  0
  2  3  1  0
  3  4  1  0
  4  5  2  0
  5  6  1  0
  6  7  2  0
  7  8  1  0
  3  9  1  0
  9 10  2  0
 10 11  1  0
 11 12  2  0
 12 13  1  0
  3 14  1  0
  2 15  1  0
 16 15  1  6
 16 17  1  0
 18 17  1  6
 18 19  1  0
 19 20  1  0
 20 21  1  0
 21 22  1  1
 21 23  1  0
 23 24  1  0
 23 25  1  0
 20 26  1  1
  8  4  1  0
 13  9  1  0
 22 16  1  0
 23 18  1  0
 19 26  1  1
M  CHG  1  23   1
M  END
$$$$
