
     RDKit          3D

 26 30  0  0  0  0  0  0  0  0999 V2000
   -1.0667    2.6647    5.4246 O   0  0  0  0  0  0  0  0  0  0  0  0
    0.0892    3.2154    5.4265 C   0  0  0  0  0  0  0  0  0  0  0  0
    0.1263    4.6824    5.3958 C   0  0  0  0  0  0  0  0  0  0  0  0
    1.0800    5.1672    4.3231 C   0  0  0  0  0  0  0  0  0  0  0  0
    1.2056    6.3428    3.7420 C   0  0  0  0  0  0  0  0  0  0  0  0
    2.1512    6.5229    2.7999 C   0  0  0  0  0  0  0  0  0  0  0  0
    2.9552    5.4833    2.4715 C   0  0  0  0  0  0  0  0  0  0  0  0
    2.3166    4.1728    3.5786 S   0  0  0  0  0  0  0  0  0  0  0  0
    0.5996    5.2807    6.6647 C   0  0  0  0  0  0  0  0  0  0  0  0
    1.8170    5.5965    7.1239 C   0  0  0  0  0  0  0  0  0  0  0  0
    1.9691    6.1331    8.3325 C   0  0  0  0  0  0  0  0  0  0  0  0
    0.8342    6.3470    9.0812 C   0  0  0  0  0  0  0  0  0  0  0  0
   -0.4609    5.7418    7.9688 S   0  0  0  0  0  0  0  0  0  0  0  0
   -1.1085    5.2342    5.0345 O   0  0  0  0  0  0  0  0  0  0  0  0
    1.1551    2.3680    5.4573 O   0  0  0  0  0  0  0  0  0  0  0  0
    1.0349    0.9395    5.3868 C   0  0  2  0  0  0  0  0  0  0  0  0
    1.0940    0.3634    6.7683 C   0  0  0  0  0  0  0  0  0  0  0  0
    1.7689   -0.9476    6.8909 C   0  0  2  0  0  0  0  0  0  0  0  0
    3.2904   -0.7626    6.8847 C   0  0  2  0  0  0  0  0  0  0  0  0
    3.7194   -0.9740    5.4672 C   0  0  2  0  0  0  0  0  0  0  0  0
    2.3902   -1.0829    4.7474 C   0  0  2  0  0  0  0  0  0  0  0  0
    1.9469    0.3054    4.4058 C   0  0  0  0  0  0  0  0  0  0  0  0
    1.5574   -1.7579    5.7048 N   0  0  0  0  0  4  0  0  0  0  0  0
    2.0522   -3.1108    5.8577 C   0  0  0  0  0  0  0  0  0  0  0  0
    0.1721   -1.8472    5.3196 C   0  0  0  0  0  0  0  0  0  0  0  0
    4.0823   -1.8233    6.4720 O   0  0  0  0  0  0  0  0  0  0  0  0
  1  2  2  0
  2  3  1  0
  3  4  1  0
  4  5  2  0
  5  6  1  0
  6  7  2  0
  7  8  1  0
  3  9  1  0
  9 10  2  0
 10 11  1  0
 11 12  2  0
 12 13  1  0
  3 14  1  0
  2 15  1  0
 16 15  1  1
 16 17  1  0
 18 17  1  6
 18 19  1  0
 19 20  1  0
 20 21  1  0
 21 22  1  1
 21 23  1  0
 23 24  1  0
 23 25  1  0
 20 26  1  1
  8  4  1  0
 13  9  1  0
 22 16  1  0
 23 18  1  0
 19 26  1  1
M  CHG  1  23   1
M  END
$$$$
