
     RDKit          3D

 26 30  0  0  0  0  0  0  0  0999 V2000
   -1.3253    2.6634    4.4095 O   0  0  0  0  0  0  0  0  0  0  0  0
   -0.6110    3.1437    5.3574 C   0  0  0  0  0  0  0  0  0  0  0  0
   -0.3366    4.5850    5.3178 C   0  0  0  0  0  0  0  0  0  0  0  0
    0.7413    4.8926    4.2986 C   0  0  0  0  0  0  0  0  0  0  0  0
    1.2459    4.1640    3.3239 C   0  0  0  0  0  0  0  0  0  0  0  0
    2.2139    4.6771    2.5407 C   0  0  0  0  0  0  0  0  0  0  0  0
    2.6473    5.9387    2.7763 C   0  0  0  0  0  0  0  0  0  0  0  0
    1.6052    6.4148    4.2041 S   0  0  0  0  0  0  0  0  0  0  0  0
    0.1549    5.1209    6.6075 C   0  0  0  0  0  0  0  0  0  0  0  0
   -0.4320    5.8248    7.5837 C   0  0  0  0  0  0  0  0  0  0  0  0
    0.2548    6.1929    8.6629 C   0  0  0  0  0  0  0  0  0  0  0  0
    1.5787    5.8229    8.7315 C   0  0  0  0  0  0  0  0  0  0  0  0
    1.7911    4.9222    7.1744 S   0  0  0  0  0  0  0  0  0  0  0  0
   -1.4443    5.3215    4.8812 O   0  0  0  0  0  0  0  0  0  0  0  0
   -0.1875    2.2532    6.2970 O   0  0  0  0  0  0  0  0  0  0  0  0
    0.0467    0.8637    6.0243 C   0  0  2  0  0  0  0  0  0  0  0  0
    0.6589    0.2137    7.2271 C   0  0  0  0  0  0  0  0  0  0  0  0
    1.6518   -0.8478    6.9500 C   0  0  2  0  0  0  0  0  0  0  0  0
    3.0022   -0.2257    6.5779 C   0  0  2  0  0  0  0  0  0  0  0  0
    3.0299   -0.1797    5.0828 C   0  0  2  0  0  0  0  0  0  0  0  0
    1.6212   -0.6107    4.7270 C   0  0  2  0  0  0  0  0  0  0  0  0
    0.7565    0.6110    4.7482 C   0  0  0  0  0  0  0  0  0  0  0  0
    1.3123   -1.5795    5.7427 N   0  0  0  0  0  4  0  0  0  0  0  0
    2.1593   -2.7362    5.5345 C   0  0  0  0  0  0  0  0  0  0  0  0
   -0.0536   -2.0370    5.7230 C   0  0  0  0  0  0  0  0  0  0  0  0
    3.8796   -0.9685    5.8027 O   0  0  0  0  0  0  0  0  0  0  0  0
  1  2  2  0
  2  3  1  0
  3  4  1  0
  4  5  2  0
  5  6  1  0
  6  7  2  0
  7  8  1  0
  3  9  1  0
  9 10  2  0
 10 11  1  0
 11 12  2  0
 12 13  1  0
  3 14  1  0
  2 15  1  0
 16 15  1  1
 16 17  1  0
 18 17  1  6
 18 19  1  0
 19 20  1  0
 20 21  1  0
 21 22  1  1
 21 23  1  0
 23 24  1  0
 23 25  1  0
 20 26  1  6
  8  4  1  0
 13  9  1  0
 22 16  1  0
 23 18  1  0
 19 26  1  6
M  CHG  1  23   1
M  END
$$$$
