
     RDKit          3D

 26 30  0  0  0  0  0  0  0  0999 V2000
    2.3460    2.5661    4.9204 O   0  0  0  0  0  0  0  0  0  0  0  0
    1.0669    2.6220    4.9246 C   0  0  0  0  0  0  0  0  0  0  0  0
    0.4594    3.9526    4.8028 C   0  0  0  0  0  0  0  0  0  0  0  0
    1.1848    4.7739    3.7567 C   0  0  0  0  0  0  0  0  0  0  0  0
    2.4225    4.7103    3.3098 C   0  0  0  0  0  0  0  0  0  0  0  0
    2.8316    5.5688    2.3561 C   0  0  0  0  0  0  0  0  0  0  0  0
    1.9539    6.4824    1.8768 C   0  0  0  0  0  0  0  0  0  0  0  0
    0.4559    6.0859    2.8515 S   0  0  0  0  0  0  0  0  0  0  0  0
    0.5214    4.7390    6.0557 C   0  0  0  0  0  0  0  0  0  0  0  0
   -0.2710    4.7984    7.1334 C   0  0  0  0  0  0  0  0  0  0  0  0
    0.0179    5.6139    8.1450 C   0  0  0  0  0  0  0  0  0  0  0  0
    1.1532    6.3844    8.0369 C   0  0  0  0  0  0  0  0  0  0  0  0
    1.7861    5.8833    6.4154 S   0  0  0  0  0  0  0  0  0  0  0  0
   -0.8598    3.8901    4.3385 O   0  0  0  0  0  0  0  0  0  0  0  0
    0.4169    1.4308    5.0425 O   0  0  0  0  0  0  0  0  0  0  0  0
    1.0879    0.1767    5.2345 C   0  0  2  0  0  0  0  0  0  0  0  0
    0.5014   -0.5287    6.4188 C   0  0  0  0  0  0  0  0  0  0  0  0
    1.4516   -1.3172    7.2340 C   0  0  2  0  0  0  0  0  0  0  0  0
    2.2500   -0.3922    8.1592 C   0  0  2  0  0  0  0  0  0  0  0  0
    3.5269   -0.0990    7.4368 C   0  0  2  0  0  0  0  0  0  0  0  0
    3.2766   -0.7320    6.0828 C   0  0  2  0  0  0  0  0  0  0  0  0
    2.5663    0.2781    5.2366 C   0  0  0  0  0  0  0  0  0  0  0  0
    2.4964   -1.8945    6.4076 N   0  0  0  0  0  4  0  0  0  0  0  0
    3.3424   -2.8148    7.1397 C   0  0  0  0  0  0  0  0  0  0  0  0
    1.9858   -2.5996    5.2597 C   0  0  0  0  0  0  0  0  0  0  0  0
    3.4956   -0.8139    8.5989 O   0  0  0  0  0  0  0  0  0  0  0  0
  1  2  2  0
  2  3  1  0
  3  4  1  0
  4  5  2  0
  5  6  1  0
  6  7  2  0
  7  8  1  0
  3  9  1  0
  9 10  2  0
 10 11  1  0
 11 12  2  0
 12 13  1  0
  3 14  1  0
  2 15  1  0
 16 15  1  1
 16 17  1  0
 18 17  1  6
 18 19  1  0
 19 20  1  0
 20 21  1  0
 21 22  1  6
 21 23  1  0
 23 24  1  0
 23 25  1  0
 20 26  1  1
  8  4  1  0
 13  9  1  0
 22 16  1  0
 23 18  1  0
 19 26  1  1
M  CHG  1  23   1
M  END
$$$$
