
     RDKit          3D

 26 30  0  0  0  0  0  0  0  0999 V2000
   -1.3144    2.5249    7.4504 O   0  0  0  0  0  0  0  0  0  0  0  0
   -0.2523    3.0622    6.9786 C   0  0  0  0  0  0  0  0  0  0  0  0
    0.2368    4.2708    7.6528 C   0  0  0  0  0  0  0  0  0  0  0  0
    0.2810    5.4369    6.6867 C   0  0  0  0  0  0  0  0  0  0  0  0
   -0.2230    5.5806    5.4780 C   0  0  0  0  0  0  0  0  0  0  0  0
   -0.0431    6.7387    4.8143 C   0  0  0  0  0  0  0  0  0  0  0  0
    0.6563    7.7337    5.4107 C   0  0  0  0  0  0  0  0  0  0  0  0
    1.0796    6.9620    7.0158 S   0  0  0  0  0  0  0  0  0  0  0  0
    1.6115    4.1269    8.1835 C   0  0  0  0  0  0  0  0  0  0  0  0
    2.7763    3.7910    7.6150 C   0  0  0  0  0  0  0  0  0  0  0  0
    3.8925    3.7307    8.3376 C   0  0  0  0  0  0  0  0  0  0  0  0
    3.7990    4.0252    9.6788 C   0  0  0  0  0  0  0  0  0  0  0  0
    2.0340    4.3926    9.8535 S   0  0  0  0  0  0  0  0  0  0  0  0
   -0.6288    4.6961    8.6675 O   0  0  0  0  0  0  0  0  0  0  0  0
    0.3017    2.4437    5.8989 O   0  0  0  0  0  0  0  0  0  0  0  0
    0.4410    1.0197    5.7856 C   0  0  2  0  0  0  0  0  0  0  0  0
    0.9532    0.4624    7.0782 C   0  0  0  0  0  0  0  0  0  0  0  0
    1.8734   -0.6906    6.9626 C   0  0  2  0  0  0  0  0  0  0  0  0
    3.2810   -0.2097    6.5927 C   0  0  2  0  0  0  0  0  0  0  0  0
    3.3724   -0.3283    5.1042 C   0  0  2  0  0  0  0  0  0  0  0  0
    1.9507   -0.6945    4.7282 C   0  0  2  0  0  0  0  0  0  0  0  0
    1.1807    0.5805    4.5789 C   0  0  0  0  0  0  0  0  0  0  0  0
    1.5287   -1.5230    5.8240 N   0  0  0  0  0  4  0  0  0  0  0  0
    2.2935   -2.7526    5.7799 C   0  0  0  0  0  0  0  0  0  0  0  0
    0.1340   -1.8821    5.7867 C   0  0  0  0  0  0  0  0  0  0  0  0
    4.1303   -1.0925    5.9432 O   0  0  0  0  0  0  0  0  0  0  0  0
  1  2  2  0
  2  3  1  0
  3  4  1  0
  4  5  2  0
  5  6  1  0
  6  7  2  0
  7  8  1  0
  3  9  1  0
  9 10  2  0
 10 11  1  0
 11 12  2  0
 12 13  1  0
  3 14  1  0
  2 15  1  0
 16 15  1  1
 16 17  1  0
 18 17  1  6
 18 19  1  0
 19 20  1  0
 20 21  1  0
 21 22  1  1
 21 23  1  0
 23 24  1  0
 23 25  1  0
 20 26  1  1
  8  4  1  0
 13  9  1  0
 22 16  1  0
 23 18  1  0
 19 26  1  1
M  CHG  1  23   1
M  END
$$$$
