
     RDKit          3D

 26 30  0  0  0  0  0  0  0  0999 V2000
   -1.4316    3.0334    5.0057 O   0  0  0  0  0  0  0  0  0  0  0  0
   -0.2716    3.5155    5.2526 C   0  0  0  0  0  0  0  0  0  0  0  0
   -0.1103    4.9671    5.1064 C   0  0  0  0  0  0  0  0  0  0  0  0
    1.0375    5.2822    4.1693 C   0  0  0  0  0  0  0  0  0  0  0  0
    2.2556    5.7234    4.4085 C   0  0  0  0  0  0  0  0  0  0  0  0
    3.1046    5.9257    3.3827 C   0  0  0  0  0  0  0  0  0  0  0  0
    2.6817    5.6683    2.1218 C   0  0  0  0  0  0  0  0  0  0  0  0
    0.9673    5.1038    2.4270 S   0  0  0  0  0  0  0  0  0  0  0  0
    0.2032    5.6506    6.3817 C   0  0  0  0  0  0  0  0  0  0  0  0
   -0.5274    5.9300    7.4684 C   0  0  0  0  0  0  0  0  0  0  0  0
    0.0104    6.5749    8.5012 C   0  0  0  0  0  0  0  0  0  0  0  0
    1.3345    6.9379    8.4053 C   0  0  0  0  0  0  0  0  0  0  0  0
    1.7710    6.3099    6.7632 S   0  0  0  0  0  0  0  0  0  0  0  0
   -1.2231    5.5634    4.5015 O   0  0  0  0  0  0  0  0  0  0  0  0
    0.6824    2.6172    5.6246 O   0  0  0  0  0  0  0  0  0  0  0  0
    0.6027    1.2125    5.3411 C   0  0  2  0  0  0  0  0  0  0  0  0
    0.5685    0.4436    6.6262 C   0  0  0  0  0  0  0  0  0  0  0  0
    1.2634   -0.8626    6.6136 C   0  0  2  0  0  0  0  0  0  0  0  0
    2.7759   -0.6593    6.7560 C   0  0  2  0  0  0  0  0  0  0  0  0
    3.3184   -0.6580    5.3618 C   0  0  2  0  0  0  0  0  0  0  0  0
    2.0519   -0.6787    4.5296 C   0  0  2  0  0  0  0  0  0  0  0  0
    1.6029    0.7386    4.3557 C   0  0  0  0  0  0  0  0  0  0  0  0
    1.1641   -1.4956    5.3107 N   0  0  0  0  0  4  0  0  0  0  0  0
    1.6782   -2.8500    5.3077 C   0  0  0  0  0  0  0  0  0  0  0  0
   -0.1846   -1.5460    4.8070 C   0  0  0  0  0  0  0  0  0  0  0  0
    3.6228   -1.6389    6.2605 O   0  0  0  0  0  0  0  0  0  0  0  0
  1  2  2  0
  2  3  1  0
  3  4  1  0
  4  5  2  0
  5  6  1  0
  6  7  2  0
  7  8  1  0
  3  9  1  0
  9 10  2  0
 10 11  1  0
 11 12  2  0
 12 13  1  0
  3 14  1  0
  2 15  1  0
 16 15  1  1
 16 17  1  0
 18 17  1  6
 18 19  1  0
 19 20  1  0
 20 21  1  0
 21 22  1  1
 21 23  1  0
 23 24  1  0
 23 25  1  0
 20 26  1  1
  8  4  1  0
 13  9  1  0
 22 16  1  0
 23 18  1  0
 19 26  1  1
M  CHG  1  23   1
M  END
$$$$
