
     RDKit          3D

 26 30  0  0  0  0  0  0  0  0999 V2000
    2.8564    2.6758    6.7483 O   0  0  0  0  0  0  0  0  0  0  0  0
    1.6937    3.1906    6.8981 C   0  0  0  0  0  0  0  0  0  0  0  0
    1.6367    4.5671    7.4044 C   0  0  0  0  0  0  0  0  0  0  0  0
    0.7939    4.6363    8.6614 C   0  0  0  0  0  0  0  0  0  0  0  0
    0.8297    3.9241    9.7691 C   0  0  0  0  0  0  0  0  0  0  0  0
   -0.0433    4.1887   10.7600 C   0  0  0  0  0  0  0  0  0  0  0  0
   -0.9424    5.1878   10.5916 C   0  0  0  0  0  0  0  0  0  0  0  0
   -0.5093    5.7807    8.9147 S   0  0  0  0  0  0  0  0  0  0  0  0
    1.0229    5.5157    6.4476 C   0  0  0  0  0  0  0  0  0  0  0  0
    0.2750    5.3455    5.3501 C   0  0  0  0  0  0  0  0  0  0  0  0
   -0.1551    6.3940    4.6518 C   0  0  0  0  0  0  0  0  0  0  0  0
    0.1977    7.6460    5.1014 C   0  0  0  0  0  0  0  0  0  0  0  0
    1.1756    7.2474    6.5731 S   0  0  0  0  0  0  0  0  0  0  0  0
    2.8939    5.0343    7.8059 O   0  0  0  0  0  0  0  0  0  0  0  0
    0.6398    2.3936    6.5674 O   0  0  0  0  0  0  0  0  0  0  0  0
    0.7828    1.1015    5.9591 C   0  0  2  0  0  0  0  0  0  0  0  0
    0.9201    0.0586    7.0256 C   0  0  0  0  0  0  0  0  0  0  0  0
    1.8198   -1.0724    6.7080 C   0  0  2  0  0  0  0  0  0  0  0  0
    3.2822   -0.6566    6.9027 C   0  0  2  0  0  0  0  0  0  0  0  0
    3.7686   -0.2377    5.5513 C   0  0  2  0  0  0  0  0  0  0  0  0
    2.4948   -0.2757    4.7310 C   0  0  2  0  0  0  0  0  0  0  0  0
    1.8128    1.0467    4.8950 C   0  0  0  0  0  0  0  0  0  0  0  0
    1.7811   -1.3901    5.2918 N   0  0  0  0  0  4  0  0  0  0  0  0
    2.5108   -2.5998    4.9711 C   0  0  0  0  0  0  0  0  0  0  0  0
    0.4425   -1.5472    4.7831 C   0  0  0  0  0  0  0  0  0  0  0  0
    4.2612   -1.3362    6.1941 O   0  0  0  0  0  0  0  0  0  0  0  0
  1  2  2  0
  2  3  1  0
  3  4  1  0
  4  5  2  0
  5  6  1  0
  6  7  2  0
  7  8  1  0
  3  9  1  0
  9 10  2  0
 10 11  1  0
 11 12  2  0
 12 13  1  0
  3 14  1  0
  2 15  1  0
 16 15  1  1
 16 17  1  0
 18 17  1  6
 18 19  1  0
 19 20  1  0
 20 21  1  0
 21 22  1  1
 21 23  1  0
 23 24  1  0
 23 25  1  0
 20 26  1  6
  8  4  1  0
 13  9  1  0
 22 16  1  0
 23 18  1  0
 19 26  1  6
M  CHG  1  23   1
M  END
$$$$
