
     RDKit          3D

 26 30  0  0  0  0  0  0  0  0999 V2000
   -0.9525    2.7546    6.9433 O   0  0  0  0  0  0  0  0  0  0  0  0
   -0.5114    3.1110    5.7954 C   0  0  0  0  0  0  0  0  0  0  0  0
   -0.0894    4.5094    5.6505 C   0  0  0  0  0  0  0  0  0  0  0  0
    1.0317    4.6237    4.6381 C   0  0  0  0  0  0  0  0  0  0  0  0
    2.2610    4.1499    4.6489 C   0  0  0  0  0  0  0  0  0  0  0  0
    3.0783    4.3936    3.6066 C   0  0  0  0  0  0  0  0  0  0  0  0
    2.6125    5.1248    2.5657 C   0  0  0  0  0  0  0  0  0  0  0  0
    0.9035    5.4826    3.1156 S   0  0  0  0  0  0  0  0  0  0  0  0
    0.4323    5.0944    6.9066 C   0  0  0  0  0  0  0  0  0  0  0  0
    1.1244    4.5809    7.9313 C   0  0  0  0  0  0  0  0  0  0  0  0
    1.4731    5.3432    8.9653 C   0  0  0  0  0  0  0  0  0  0  0  0
    1.0962    6.6666    8.9361 C   0  0  0  0  0  0  0  0  0  0  0  0
    0.2180    6.7651    7.3550 S   0  0  0  0  0  0  0  0  0  0  0  0
   -1.1078    5.3168    5.1300 O   0  0  0  0  0  0  0  0  0  0  0  0
   -0.4858    2.1428    4.8378 O   0  0  0  0  0  0  0  0  0  0  0  0
   -0.0436    0.7990    5.0801 C   0  0  2  0  0  0  0  0  0  0  0  0
    0.5136    0.6978    6.4669 C   0  0  0  0  0  0  0  0  0  0  0  0
    1.6610   -0.2214    6.6343 C   0  0  2  0  0  0  0  0  0  0  0  0
    2.9510    0.4475    6.1466 C   0  0  2  0  0  0  0  0  0  0  0  0
    3.1351   -0.0074    4.7334 C   0  0  2  0  0  0  0  0  0  0  0  0
    1.8421   -0.7528    4.4701 C   0  0  2  0  0  0  0  0  0  0  0  0
    0.8279    0.2497    4.0148 C   0  0  0  0  0  0  0  0  0  0  0  0
    1.5537   -1.3604    5.7402 N   0  0  0  0  0  4  0  0  0  0  0  0
    2.5622   -2.3682    5.9969 C   0  0  0  0  0  0  0  0  0  0  0  0
    0.2697   -2.0106    5.8031 C   0  0  0  0  0  0  0  0  0  0  0  0
    3.9971   -0.3616    5.7304 O   0  0  0  0  0  0  0  0  0  0  0  0
  1  2  2  0
  2  3  1  0
  3  4  1  0
  4  5  2  0
  5  6  1  0
  6  7  2  0
  7  8  1  0
  3  9  1  0
  9 10  2  0
 10 11  1  0
 11 12  2  0
 12 13  1  0
  3 14  1  0
  2 15  1  0
 16 15  1  6
 16 17  1  0
 18 17  1  6
 18 19  1  0
 19 20  1  0
 20 21  1  0
 21 22  1  1
 21 23  1  0
 23 24  1  0
 23 25  1  0
 20 26  1  1
  8  4  1  0
 13  9  1  0
 22 16  1  0
 23 18  1  0
 19 26  1  1
M  CHG  1  23   1
M  END
$$$$
