
     RDKit          3D

 26 30  0  0  0  0  0  0  0  0999 V2000
   -1.4151    2.9640    4.4180 O   0  0  0  0  0  0  0  0  0  0  0  0
   -0.5076    3.2632    5.2702 C   0  0  0  0  0  0  0  0  0  0  0  0
    0.0158    4.6339    5.2298 C   0  0  0  0  0  0  0  0  0  0  0  0
    1.2910    4.6916    4.4138 C   0  0  0  0  0  0  0  0  0  0  0  0
    2.4928    4.2057    4.6483 C   0  0  0  0  0  0  0  0  0  0  0  0
    3.4756    4.3946    3.7470 C   0  0  0  0  0  0  0  0  0  0  0  0
    3.2016    5.0843    2.6138 C   0  0  0  0  0  0  0  0  0  0  0  0
    1.4318    5.4842    2.8568 S   0  0  0  0  0  0  0  0  0  0  0  0
    0.3617    5.1659    6.5675 C   0  0  0  0  0  0  0  0  0  0  0  0
    1.4856    5.1402    7.2947 C   0  0  0  0  0  0  0  0  0  0  0  0
    1.5283    5.7046    8.4995 C   0  0  0  0  0  0  0  0  0  0  0  0
    0.3808    6.3089    8.9601 C   0  0  0  0  0  0  0  0  0  0  0  0
   -0.7619    6.0289    7.5828 S   0  0  0  0  0  0  0  0  0  0  0  0
   -0.8542    5.5120    4.5727 O   0  0  0  0  0  0  0  0  0  0  0  0
   -0.1331    2.2664    6.1195 O   0  0  0  0  0  0  0  0  0  0  0  0
    0.1208    0.9184    5.6974 C   0  0  2  0  0  0  0  0  0  0  0  0
    0.8293    0.1769    6.7892 C   0  0  0  0  0  0  0  0  0  0  0  0
    1.8305   -0.8187    6.3468 C   0  0  2  0  0  0  0  0  0  0  0  0
    3.1355   -0.1183    5.9525 C   0  0  2  0  0  0  0  0  0  0  0  0
    3.0624    0.0722    4.4705 C   0  0  2  0  0  0  0  0  0  0  0  0
    1.6456   -0.3701    4.1643 C   0  0  2  0  0  0  0  0  0  0  0  0
    0.7509    0.8138    4.3601 C   0  0  0  0  0  0  0  0  0  0  0  0
    1.4318   -1.4420    5.0975 N   0  0  0  0  0  4  0  0  0  0  0  0
    2.2946   -2.5439    4.7234 C   0  0  0  0  0  0  0  0  0  0  0  0
    0.0807   -1.9416    5.1198 C   0  0  0  0  0  0  0  0  0  0  0  0
    3.9796   -0.7529    5.0541 O   0  0  0  0  0  0  0  0  0  0  0  0
  1  2  2  0
  2  3  1  0
  3  4  1  0
  4  5  2  0
  5  6  1  0
  6  7  2  0
  7  8  1  0
  3  9  1  0
  9 10  2  0
 10 11  1  0
 11 12  2  0
 12 13  1  0
  3 14  1  0
  2 15  1  0
 16 15  1  1
 16 17  1  0
 18 17  1  6
 18 19  1  0
 19 20  1  0
 20 21  1  0
 21 22  1  1
 21 23  1  0
 23 24  1  0
 23 25  1  0
 20 26  1  6
  8  4  1  0
 13  9  1  0
 22 16  1  0
 23 18  1  0
 19 26  1  6
M  CHG  1  23   1
M  END
$$$$
