
     RDKit          3D

 26 30  0  0  0  0  0  0  0  0999 V2000
   -1.4495    2.8376    5.3782 O   0  0  0  0  0  0  0  0  0  0  0  0
   -0.2579    3.2949    5.4783 C   0  0  0  0  0  0  0  0  0  0  0  0
   -0.0741    4.7303    5.2329 C   0  0  0  0  0  0  0  0  0  0  0  0
    1.1426    4.9688    4.3624 C   0  0  0  0  0  0  0  0  0  0  0  0
    2.4144    4.6828    4.5533 C   0  0  0  0  0  0  0  0  0  0  0  0
    3.3187    5.0030    3.6079 C   0  0  0  0  0  0  0  0  0  0  0  0
    2.8947    5.6154    2.4764 C   0  0  0  0  0  0  0  0  0  0  0  0
    1.0950    5.7382    2.7882 S   0  0  0  0  0  0  0  0  0  0  0  0
    0.1497    5.5099    6.4715 C   0  0  0  0  0  0  0  0  0  0  0  0
    0.6886    6.7132    6.7048 C   0  0  0  0  0  0  0  0  0  0  0  0
    0.7750    7.1900    7.9446 C   0  0  0  0  0  0  0  0  0  0  0  0
    0.2920    6.4021    8.9645 C   0  0  0  0  0  0  0  0  0  0  0  0
   -0.2917    4.9452    8.0603 S   0  0  0  0  0  0  0  0  0  0  0  0
   -1.1340    5.2808    4.5025 O   0  0  0  0  0  0  0  0  0  0  0  0
    0.7051    2.3880    5.8032 O   0  0  0  0  0  0  0  0  0  0  0  0
    0.5270    0.9681    5.6932 C   0  0  2  0  0  0  0  0  0  0  0  0
    0.8266    0.3224    7.0112 C   0  0  0  0  0  0  0  0  0  0  0  0
    1.4690   -1.0089    6.9446 C   0  0  2  0  0  0  0  0  0  0  0  0
    2.9673   -0.8601    6.6578 C   0  0  2  0  0  0  0  0  0  0  0  0
    3.1140   -1.0105    5.1766 C   0  0  2  0  0  0  0  0  0  0  0  0
    1.6700   -1.0515    4.7183 C   0  0  2  0  0  0  0  0  0  0  0  0
    1.2161    0.3624    4.5294 C   0  0  0  0  0  0  0  0  0  0  0  0
    1.0111   -1.7535    5.7854 N   0  0  0  0  0  4  0  0  0  0  0  0
    1.4811   -3.1237    5.7810 C   0  0  0  0  0  0  0  0  0  0  0  0
   -0.4242   -1.7903    5.6668 C   0  0  0  0  0  0  0  0  0  0  0  0
    3.6318   -1.9173    6.0552 O   0  0  0  0  0  0  0  0  0  0  0  0
  1  2  2  0
  2  3  1  0
  3  4  1  0
  4  5  2  0
  5  6  1  0
  6  7  2  0
  7  8  1  0
  3  9  1  0
  9 10  2  0
 10 11  1  0
 11 12  2  0
 12 13  1  0
  3 14  1  0
  2 15  1  0
 16 15  1  1
 16 17  1  0
 18 17  1  6
 18 19  1  0
 19 20  1  0
 20 21  1  0
 21 22  1  1
 21 23  1  0
 23 24  1  0
 23 25  1  0
 20 26  1  1
  8  4  1  0
 13  9  1  0
 22 16  1  0
 23 18  1  0
 19 26  1  1
M  CHG  1  23   1
M  END
$$$$
