
     RDKit          3D

 26 30  0  0  0  0  0  0  0  0999 V2000
   -1.7850    2.9027    5.0666 O   0  0  0  0  0  0  0  0  0  0  0  0
   -0.6956    3.2712    5.6294 C   0  0  0  0  0  0  0  0  0  0  0  0
   -0.3094    4.6785    5.4720 C   0  0  0  0  0  0  0  0  0  0  0  0
    0.8428    4.8071    4.4968 C   0  0  0  0  0  0  0  0  0  0  0  0
    0.8654    5.1287    3.2194 C   0  0  0  0  0  0  0  0  0  0  0  0
    2.0414    5.1756    2.5647 C   0  0  0  0  0  0  0  0  0  0  0  0
    3.1796    4.8891    3.2410 C   0  0  0  0  0  0  0  0  0  0  0  0
    2.5233    4.5320    4.9121 S   0  0  0  0  0  0  0  0  0  0  0  0
    0.1510    5.3017    6.7337 C   0  0  0  0  0  0  0  0  0  0  0  0
    0.5782    4.7942    7.8967 C   0  0  0  0  0  0  0  0  0  0  0  0
    0.9374    5.5960    8.8967 C   0  0  0  0  0  0  0  0  0  0  0  0
    0.8520    6.9534    8.6860 C   0  0  0  0  0  0  0  0  0  0  0  0
    0.2320    7.0245    6.9856 S   0  0  0  0  0  0  0  0  0  0  0  0
   -1.3317    5.4458    4.9011 O   0  0  0  0  0  0  0  0  0  0  0  0
   -0.0195    2.3061    6.3125 O   0  0  0  0  0  0  0  0  0  0  0  0
    0.0964    0.9486    5.8614 C   0  0  2  0  0  0  0  0  0  0  0  0
    0.8511    0.1463    6.8766 C   0  0  0  0  0  0  0  0  0  0  0  0
    1.7322   -0.9120    6.3353 C   0  0  2  0  0  0  0  0  0  0  0  0
    3.0402   -0.3005    5.8212 C   0  0  2  0  0  0  0  0  0  0  0  0
    2.8401   -0.0880    4.3540 C   0  0  2  0  0  0  0  0  0  0  0  0
    1.3726   -0.4259    4.1828 C   0  0  2  0  0  0  0  0  0  0  0  0
    0.5871    0.8157    4.4694 C   0  0  0  0  0  0  0  0  0  0  0  0
    1.1730   -1.4910    5.1269 N   0  0  0  0  0  4  0  0  0  0  0  0
    1.9156   -2.6464    4.6664 C   0  0  0  0  0  0  0  0  0  0  0  0
   -0.2019   -1.8945    5.2761 C   0  0  0  0  0  0  0  0  0  0  0  0
    3.7476   -0.9824    4.8428 O   0  0  0  0  0  0  0  0  0  0  0  0
  1  2  2  0
  2  3  1  0
  3  4  1  0
  4  5  2  0
  5  6  1  0
  6  7  2  0
  7  8  1  0
  3  9  1  0
  9 10  2  0
 10 11  1  0
 11 12  2  0
 12 13  1  0
  3 14  1  0
  2 15  1  0
 16 15  1  1
 16 17  1  0
 18 17  1  6
 18 19  1  0
 19 20  1  0
 20 21  1  0
 21 22  1  1
 21 23  1  0
 23 24  1  0
 23 25  1  0
 20 26  1  6
  8  4  1  0
 13  9  1  0
 22 16  1  0
 23 18  1  0
 19 26  1  6
M  CHG  1  23   1
M  END
$$$$
