
     RDKit          3D

 26 30  0  0  0  0  0  0  0  0999 V2000
    0.0940    2.5540    3.7031 O   0  0  0  0  0  0  0  0  0  0  0  0
   -0.0141    2.9486    4.9163 C   0  0  0  0  0  0  0  0  0  0  0  0
    0.1241    4.3891    5.1614 C   0  0  0  0  0  0  0  0  0  0  0  0
    1.1222    4.9984    4.1982 C   0  0  0  0  0  0  0  0  0  0  0  0
    1.8759    4.4485    3.2681 C   0  0  0  0  0  0  0  0  0  0  0  0
    2.6947    5.2224    2.5301 C   0  0  0  0  0  0  0  0  0  0  0  0
    2.7226    6.5563    2.7643 C   0  0  0  0  0  0  0  0  0  0  0  0
    1.5037    6.7074    4.1217 S   0  0  0  0  0  0  0  0  0  0  0  0
    0.6213    4.7047    6.5198 C   0  0  0  0  0  0  0  0  0  0  0  0
    1.5735    4.1626    7.2894 C   0  0  0  0  0  0  0  0  0  0  0  0
    1.8230    4.6471    8.5038 C   0  0  0  0  0  0  0  0  0  0  0  0
    1.0691    5.7170    8.9294 C   0  0  0  0  0  0  0  0  0  0  0  0
   -0.0145    5.9946    7.5047 S   0  0  0  0  0  0  0  0  0  0  0  0
   -1.0653    5.0836    4.9107 O   0  0  0  0  0  0  0  0  0  0  0  0
   -0.2463    1.9771    5.8424 O   0  0  0  0  0  0  0  0  0  0  0  0
    0.1851    0.6167    5.6901 C   0  0  2  0  0  0  0  0  0  0  0  0
    0.6034    0.0721    7.0214 C   0  0  0  0  0  0  0  0  0  0  0  0
    1.7390   -0.8762    7.0011 C   0  0  2  0  0  0  0  0  0  0  0  0
    3.0631   -0.1143    6.8778 C   0  0  2  0  0  0  0  0  0  0  0  0
    3.3914   -0.1043    5.4183 C   0  0  2  0  0  0  0  0  0  0  0  0
    2.1394   -0.7020    4.8084 C   0  0  2  0  0  0  0  0  0  0  0  0
    1.1639    0.4135    4.5962 C   0  0  0  0  0  0  0  0  0  0  0  0
    1.7336   -1.6729    5.7873 N   0  0  0  0  0  4  0  0  0  0  0  0
    2.7232   -2.7307    5.8098 C   0  0  0  0  0  0  0  0  0  0  0  0
    0.4572   -2.2833    5.5161 C   0  0  0  0  0  0  0  0  0  0  0  0
    4.1545   -0.7722    6.3315 O   0  0  0  0  0  0  0  0  0  0  0  0
  1  2  2  0
  2  3  1  0
  3  4  1  0
  4  5  2  0
  5  6  1  0
  6  7  2  0
  7  8  1  0
  3  9  1  0
  9 10  2  0
 10 11  1  0
 11 12  2  0
 12 13  1  0
  3 14  1  0
  2 15  1  0
 16 15  1  1
 16 17  1  0
 18 17  1  6
 18 19  1  0
 19 20  1  0
 20 21  1  0
 21 22  1  1
 21 23  1  0
 23 24  1  0
 23 25  1  0
 20 26  1  1
  8  4  1  0
 13  9  1  0
 22 16  1  0
 23 18  1  0
 19 26  1  1
M  CHG  1  23   1
M  END
$$$$
