
     RDKit          3D

 26 30  0  0  0  0  0  0  0  0999 V2000
   -0.2945    2.2714    7.5853 O   0  0  0  0  0  0  0  0  0  0  0  0
    0.2810    2.7689    6.5556 C   0  0  0  0  0  0  0  0  0  0  0  0
    1.0961    3.9714    6.7658 C   0  0  0  0  0  0  0  0  0  0  0  0
    0.2598    5.2200    6.5742 C   0  0  0  0  0  0  0  0  0  0  0  0
   -0.7514    5.4706    5.7678 C   0  0  0  0  0  0  0  0  0  0  0  0
   -1.3372    6.6832    5.7905 C   0  0  0  0  0  0  0  0  0  0  0  0
   -0.8687    7.6212    6.6482 C   0  0  0  0  0  0  0  0  0  0  0  0
    0.4904    6.7097    7.4686 S   0  0  0  0  0  0  0  0  0  0  0  0
    2.2247    4.0848    5.8143 C   0  0  0  0  0  0  0  0  0  0  0  0
    2.4130    4.8157    4.7084 C   0  0  0  0  0  0  0  0  0  0  0  0
    3.5475    4.7235    4.0182 C   0  0  0  0  0  0  0  0  0  0  0  0
    4.5075    3.8548    4.4849 C   0  0  0  0  0  0  0  0  0  0  0  0
    3.7053    3.1768    5.9607 S   0  0  0  0  0  0  0  0  0  0  0  0
    1.5641    4.0683    8.0817 O   0  0  0  0  0  0  0  0  0  0  0  0
    0.0670    2.1181    5.3783 O   0  0  0  0  0  0  0  0  0  0  0  0
    0.3141    0.7169    5.1903 C   0  0  2  0  0  0  0  0  0  0  0  0
    0.9347    0.1473    6.4290 C   0  0  0  0  0  0  0  0  0  0  0  0
    1.9373   -0.9196    6.2146 C   0  0  2  0  0  0  0  0  0  0  0  0
    3.2810   -0.3086    5.8020 C   0  0  2  0  0  0  0  0  0  0  0  0
    3.3055   -0.3536    4.3069 C   0  0  2  0  0  0  0  0  0  0  0  0
    1.9003   -0.8189    3.9815 C   0  0  2  0  0  0  0  0  0  0  0  0
    1.0239    0.3936    3.9302 C   0  0  0  0  0  0  0  0  0  0  0  0
    1.6026   -1.7268    5.0551 N   0  0  0  0  0  4  0  0  0  0  0  0
    2.4603   -2.8859    4.9158 C   0  0  0  0  0  0  0  0  0  0  0  0
    0.2411   -2.1976    5.0667 C   0  0  0  0  0  0  0  0  0  0  0  0
    4.1640   -1.0890    5.0714 O   0  0  0  0  0  0  0  0  0  0  0  0
  1  2  2  0
  2  3  1  0
  3  4  1  0
  4  5  2  0
  5  6  1  0
  6  7  2  0
  7  8  1  0
  3  9  1  0
  9 10  2  0
 10 11  1  0
 11 12  2  0
 12 13  1  0
  3 14  1  0
  2 15  1  0
 16 15  1  1
 16 17  1  0
 18 17  1  6
 18 19  1  0
 19 20  1  0
 20 21  1  0
 21 22  1  1
 21 23  1  0
 23 24  1  0
 23 25  1  0
 20 26  1  1
  8  4  1  0
 13  9  1  0
 22 16  1  0
 23 18  1  0
 19 26  1  1
M  CHG  1  23   1
M  END
$$$$
