
     RDKit          3D

 26 30  0  0  0  0  0  0  0  0999 V2000
   -1.2648    2.8735    4.8930 O   0  0  0  0  0  0  0  0  0  0  0  0
   -0.1441    3.3331    5.3079 C   0  0  0  0  0  0  0  0  0  0  0  0
    0.0717    4.7787    5.1741 C   0  0  0  0  0  0  0  0  0  0  0  0
    1.3060    5.0566    4.3408 C   0  0  0  0  0  0  0  0  0  0  0  0
    2.5857    5.0322    4.6525 C   0  0  0  0  0  0  0  0  0  0  0  0
    3.5062    5.3219    3.7129 C   0  0  0  0  0  0  0  0  0  0  0  0
    3.0899    5.6332    2.4620 C   0  0  0  0  0  0  0  0  0  0  0  0
    1.2733    5.5023    2.6459 S   0  0  0  0  0  0  0  0  0  0  0  0
    0.2921    5.4582    6.4709 C   0  0  0  0  0  0  0  0  0  0  0  0
    0.1002    5.0801    7.7410 C   0  0  0  0  0  0  0  0  0  0  0  0
    0.3832    5.9059    8.7458 C   0  0  0  0  0  0  0  0  0  0  0  0
    0.8760    7.1508    8.4269 C   0  0  0  0  0  0  0  0  0  0  0  0
    0.9140    7.0799    6.6173 S   0  0  0  0  0  0  0  0  0  0  0  0
   -0.9659    5.4046    4.4730 O   0  0  0  0  0  0  0  0  0  0  0  0
    0.7212    2.4189    5.8282 O   0  0  0  0  0  0  0  0  0  0  0  0
    0.6618    1.0149    5.5364 C   0  0  2  0  0  0  0  0  0  0  0  0
    0.7611    0.2340    6.8109 C   0  0  0  0  0  0  0  0  0  0  0  0
    1.4932   -1.0490    6.7245 C   0  0  2  0  0  0  0  0  0  0  0  0
    3.0051   -0.7982    6.7406 C   0  0  2  0  0  0  0  0  0  0  0  0
    3.4269   -0.7672    5.3056 C   0  0  2  0  0  0  0  0  0  0  0  0
    2.0955   -0.8214    4.5835 C   0  0  2  0  0  0  0  0  0  0  0  0
    1.5891    0.5822    4.4645 C   0  0  0  0  0  0  0  0  0  0  0  0
    1.3034   -1.6733    5.4275 N   0  0  0  0  0  4  0  0  0  0  0  0
    1.8576   -3.0103    5.3654 C   0  0  0  0  0  0  0  0  0  0  0  0
   -0.0811   -1.7628    5.0392 C   0  0  0  0  0  0  0  0  0  0  0  0
    3.8372   -1.7455    6.1640 O   0  0  0  0  0  0  0  0  0  0  0  0
  1  2  2  0
  2  3  1  0
  3  4  1  0
  4  5  2  0
  5  6  1  0
  6  7  2  0
  7  8  1  0
  3  9  1  0
  9 10  2  0
 10 11  1  0
 11 12  2  0
 12 13  1  0
  3 14  1  0
  2 15  1  0
 16 15  1  1
 16 17  1  0
 18 17  1  6
 18 19  1  0
 19 20  1  0
 20 21  1  0
 21 22  1  1
 21 23  1  0
 23 24  1  0
 23 25  1  0
 20 26  1  6
  8  4  1  0
 13  9  1  0
 22 16  1  0
 23 18  1  0
 19 26  1  1
M  CHG  1  23   1
M  END
$$$$
