
     RDKit          3D

 26 30  0  0  0  0  0  0  0  0999 V2000
   -1.2107    3.1319    4.0716 O   0  0  0  0  0  0  0  0  0  0  0  0
   -0.6359    3.5897    5.1201 C   0  0  0  0  0  0  0  0  0  0  0  0
   -0.2930    5.0169    5.1205 C   0  0  0  0  0  0  0  0  0  0  0  0
    0.8846    5.2804    4.2046 C   0  0  0  0  0  0  0  0  0  0  0  0
    0.9781    5.2782    2.8905 C   0  0  0  0  0  0  0  0  0  0  0  0
    2.1604    5.5510    2.3060 C   0  0  0  0  0  0  0  0  0  0  0  0
    3.2313    5.8230    3.0896 C   0  0  0  0  0  0  0  0  0  0  0  0
    2.4983    5.6786    4.7608 S   0  0  0  0  0  0  0  0  0  0  0  0
    0.1054    5.5208    6.4544 C   0  0  0  0  0  0  0  0  0  0  0  0
   -0.5184    6.2794    7.3645 C   0  0  0  0  0  0  0  0  0  0  0  0
    0.0813    6.5980    8.5094 C   0  0  0  0  0  0  0  0  0  0  0  0
    1.3553    6.1195    8.7151 C   0  0  0  0  0  0  0  0  0  0  0  0
    1.6516    5.1911    7.1882 S   0  0  0  0  0  0  0  0  0  0  0  0
   -1.3223    5.8072    4.5950 O   0  0  0  0  0  0  0  0  0  0  0  0
   -0.4093    2.6911    6.1183 O   0  0  0  0  0  0  0  0  0  0  0  0
    0.0595    1.3539    5.8902 C   0  0  2  0  0  0  0  0  0  0  0  0
    0.9911    0.9550    6.9934 C   0  0  0  0  0  0  0  0  0  0  0  0
    2.1211    0.0850    6.5989 C   0  0  2  0  0  0  0  0  0  0  0  0
    3.2275    0.9188    5.9432 C   0  0  2  0  0  0  0  0  0  0  0  0
    2.9879    0.8242    4.4695 C   0  0  2  0  0  0  0  0  0  0  0  0
    1.6606    0.0951    4.4111 C   0  0  2  0  0  0  0  0  0  0  0  0
    0.5766    1.1216    4.5210 C   0  0  0  0  0  0  0  0  0  0  0  0
    1.7398   -0.8122    5.5230 N   0  0  0  0  0  4  0  0  0  0  0  0
    2.7610   -1.7968    5.2292 C   0  0  0  0  0  0  0  0  0  0  0  0
    0.5169   -1.5262    5.7876 C   0  0  0  0  0  0  0  0  0  0  0  0
    4.0943    0.2892    5.0631 O   0  0  0  0  0  0  0  0  0  0  0  0
  1  2  2  0
  2  3  1  0
  3  4  1  0
  4  5  2  0
  5  6  1  0
  6  7  2  0
  7  8  1  0
  3  9  1  0
  9 10  2  0
 10 11  1  0
 11 12  2  0
 12 13  1  0
  3 14  1  0
  2 15  1  0
 16 15  1  6
 16 17  1  0
 18 17  1  6
 18 19  1  0
 19 20  1  0
 20 21  1  0
 21 22  1  1
 21 23  1  0
 23 24  1  0
 23 25  1  0
 20 26  1  6
  8  4  1  0
 13  9  1  0
 22 16  1  0
 23 18  1  0
 19 26  1  6
M  CHG  1  23   1
M  END
$$$$
