
     RDKit          3D

 26 30  0  0  0  0  0  0  0  0999 V2000
    1.4695    2.8290    6.6756 O   0  0  0  0  0  0  0  0  0  0  0  0
    0.3985    3.0048    5.9964 C   0  0  0  0  0  0  0  0  0  0  0  0
    0.1267    4.3680    5.5251 C   0  0  0  0  0  0  0  0  0  0  0  0
    1.0993    4.7552    4.4300 C   0  0  0  0  0  0  0  0  0  0  0  0
    2.1478    4.1259    3.9397 C   0  0  0  0  0  0  0  0  0  0  0  0
    2.8611    4.6922    2.9475 C   0  0  0  0  0  0  0  0  0  0  0  0
    2.4796    5.9031    2.4751 C   0  0  0  0  0  0  0  0  0  0  0  0
    1.0132    6.2478    3.5152 S   0  0  0  0  0  0  0  0  0  0  0  0
    0.2747    5.3918    6.5844 C   0  0  0  0  0  0  0  0  0  0  0  0
   -0.6075    6.0267    7.3663 C   0  0  0  0  0  0  0  0  0  0  0  0
   -0.2003    6.9283    8.2569 C   0  0  0  0  0  0  0  0  0  0  0  0
    1.1509    7.1768    8.3386 C   0  0  0  0  0  0  0  0  0  0  0  0
    1.8091    6.0558    7.0772 S   0  0  0  0  0  0  0  0  0  0  0  0
   -1.1323    4.4771    4.9227 O   0  0  0  0  0  0  0  0  0  0  0  0
   -0.3672    1.8974    5.7904 O   0  0  0  0  0  0  0  0  0  0  0  0
    0.1687    0.6231    5.4044 C   0  0  2  0  0  0  0  0  0  0  0  0
    0.3810   -0.2209    6.6237 C   0  0  0  0  0  0  0  0  0  0  0  0
    1.5599   -1.1144    6.5910 C   0  0  2  0  0  0  0  0  0  0  0  0
    2.8347   -0.3207    6.8978 C   0  0  2  0  0  0  0  0  0  0  0  0
    3.4121    0.0499    5.5684 C   0  0  2  0  0  0  0  0  0  0  0  0
    2.3261   -0.4049    4.6141 C   0  0  2  0  0  0  0  0  0  0  0  0
    1.3347    0.7102    4.4940 C   0  0  0  0  0  0  0  0  0  0  0  0
    1.8171   -1.5921    5.2442 N   0  0  0  0  0  4  0  0  0  0  0  0
    2.8520   -2.6049    5.1996 C   0  0  0  0  0  0  0  0  0  0  0  0
    0.6488   -2.1421    4.6056 C   0  0  0  0  0  0  0  0  0  0  0  0
    4.0440   -0.8056    6.4235 O   0  0  0  0  0  0  0  0  0  0  0  0
  1  2  2  0
  2  3  1  0
  3  4  1  0
  4  5  2  0
  5  6  1  0
  6  7  2  0
  7  8  1  0
  3  9  1  0
  9 10  2  0
 10 11  1  0
 11 12  2  0
 12 13  1  0
  3 14  1  0
  2 15  1  0
 16 15  1  1
 16 17  1  0
 18 17  1  6
 18 19  1  0
 19 20  1  0
 20 21  1  0
 21 22  1  1
 21 23  1  0
 23 24  1  0
 23 25  1  0
 20 26  1  6
  8  4  1  0
 13  9  1  0
 22 16  1  0
 23 18  1  0
 19 26  1  6
M  CHG  1  23   1
M  END
$$$$
