
     RDKit          3D

 26 30  0  0  0  0  0  0  0  0999 V2000
    2.6099    2.1995    6.7894 O   0  0  0  0  0  0  0  0  0  0  0  0
    1.7752    2.8662    6.0837 C   0  0  0  0  0  0  0  0  0  0  0  0
    1.9933    4.3146    5.9886 C   0  0  0  0  0  0  0  0  0  0  0  0
    0.7576    5.0683    6.4360 C   0  0  0  0  0  0  0  0  0  0  0  0
    0.4496    5.6189    7.5925 C   0  0  0  0  0  0  0  0  0  0  0  0
   -0.7339    6.2450    7.7384 C   0  0  0  0  0  0  0  0  0  0  0  0
   -1.5838    6.2932    6.6846 C   0  0  0  0  0  0  0  0  0  0  0  0
   -0.6287    5.3879    5.4121 S   0  0  0  0  0  0  0  0  0  0  0  0
    2.2749    4.7727    4.6091 C   0  0  0  0  0  0  0  0  0  0  0  0
    1.9475    4.2886    3.4045 C   0  0  0  0  0  0  0  0  0  0  0  0
    2.3416    4.9073    2.2937 C   0  0  0  0  0  0  0  0  0  0  0  0
    3.0912    6.0529    2.4351 C   0  0  0  0  0  0  0  0  0  0  0  0
    3.2036    6.2000    4.2370 S   0  0  0  0  0  0  0  0  0  0  0  0
    2.9992    4.7550    6.8569 O   0  0  0  0  0  0  0  0  0  0  0  0
    0.7763    2.1467    5.5008 O   0  0  0  0  0  0  0  0  0  0  0  0
    0.9405    0.8025    5.0254 C   0  0  2  0  0  0  0  0  0  0  0  0
    0.4609   -0.1596    6.0686 C   0  0  0  0  0  0  0  0  0  0  0  0
    1.2140   -1.4293    6.1683 C   0  0  2  0  0  0  0  0  0  0  0  0
    2.5180   -1.2121    6.9440 C   0  0  2  0  0  0  0  0  0  0  0  0
    3.5721   -0.9778    5.9086 C   0  0  2  0  0  0  0  0  0  0  0  0
    2.7533   -0.8998    4.6357 C   0  0  2  0  0  0  0  0  0  0  0  0
    2.2895    0.5153    4.4833 C   0  0  0  0  0  0  0  0  0  0  0  0
    1.7019   -1.8519    4.8678 N   0  0  0  0  0  4  0  0  0  0  0  0
    2.2905   -3.1753    4.8956 C   0  0  0  0  0  0  0  0  0  0  0  0
    0.6788   -1.8570    3.8535 C   0  0  0  0  0  0  0  0  0  0  0  0
    3.5749   -2.0796    6.7138 O   0  0  0  0  0  0  0  0  0  0  0  0
  1  2  2  0
  2  3  1  0
  3  4  1  0
  4  5  2  0
  5  6  1  0
  6  7  2  0
  7  8  1  0
  3  9  1  0
  9 10  2  0
 10 11  1  0
 11 12  2  0
 12 13  1  0
  3 14  1  0
  2 15  1  0
 16 15  1  1
 16 17  1  0
 18 17  1  6
 18 19  1  0
 19 20  1  0
 20 21  1  0
 21 22  1  1
 21 23  1  0
 23 24  1  0
 23 25  1  0
 20 26  1  6
  8  4  1  0
 13  9  1  0
 22 16  1  0
 23 18  1  0
 19 26  1  6
M  CHG  1  23   1
M  END
$$$$
