
     RDKit          3D

 26 30  0  0  0  0  0  0  0  0999 V2000
   -0.9561    2.5663    5.2111 O   0  0  0  0  0  0  0  0  0  0  0  0
    0.1966    3.1224    5.2447 C   0  0  0  0  0  0  0  0  0  0  0  0
    0.2288    4.5888    5.1891 C   0  0  0  0  0  0  0  0  0  0  0  0
    1.2614    5.0596    4.1855 C   0  0  0  0  0  0  0  0  0  0  0  0
    2.3983    4.5212    3.7943 C   0  0  0  0  0  0  0  0  0  0  0  0
    3.1494    5.1487    2.8690 C   0  0  0  0  0  0  0  0  0  0  0  0
    2.7137    6.3261    2.3602 C   0  0  0  0  0  0  0  0  0  0  0  0
    1.1356    6.5441    3.2620 S   0  0  0  0  0  0  0  0  0  0  0  0
    0.5980    5.2136    6.4796 C   0  0  0  0  0  0  0  0  0  0  0  0
    1.4289    4.8474    7.4636 C   0  0  0  0  0  0  0  0  0  0  0  0
    1.5777    5.6084    8.5455 C   0  0  0  0  0  0  0  0  0  0  0  0
    0.8492    6.7745    8.6084 C   0  0  0  0  0  0  0  0  0  0  0  0
   -0.0590    6.7270    7.0419 S   0  0  0  0  0  0  0  0  0  0  0  0
   -0.9765    5.1259    4.7215 O   0  0  0  0  0  0  0  0  0  0  0  0
    1.2642    2.2807    5.3289 O   0  0  0  0  0  0  0  0  0  0  0  0
    1.1484    0.8502    5.3271 C   0  0  2  0  0  0  0  0  0  0  0  0
    1.1857    0.3431    6.7362 C   0  0  0  0  0  0  0  0  0  0  0  0
    1.8614   -0.9582    6.9344 C   0  0  2  0  0  0  0  0  0  0  0  0
    3.3824   -0.7691    6.9444 C   0  0  2  0  0  0  0  0  0  0  0  0
    3.8354   -1.0489    5.5463 C   0  0  2  0  0  0  0  0  0  0  0  0
    2.5186   -1.1972    4.8109 C   0  0  2  0  0  0  0  0  0  0  0  0
    2.0780    0.1713    4.3938 C   0  0  0  0  0  0  0  0  0  0  0  0
    1.6715   -1.8266    5.7865 N   0  0  0  0  0  4  0  0  0  0  0  0
    2.1667   -3.1688    6.0142 C   0  0  0  0  0  0  0  0  0  0  0  0
    0.2930   -1.9390    5.3833 C   0  0  0  0  0  0  0  0  0  0  0  0
    4.1834   -1.8464    6.5977 O   0  0  0  0  0  0  0  0  0  0  0  0
  1  2  2  0
  2  3  1  0
  3  4  1  0
  4  5  2  0
  5  6  1  0
  6  7  2  0
  7  8  1  0
  3  9  1  0
  9 10  2  0
 10 11  1  0
 11 12  2  0
 12 13  1  0
  3 14  1  0
  2 15  1  0
 16 15  1  1
 16 17  1  0
 18 17  1  6
 18 19  1  0
 19 20  1  0
 20 21  1  0
 21 22  1  1
 21 23  1  0
 23 24  1  0
 23 25  1  0
 20 26  1  1
  8  4  1  0
 13  9  1  0
 22 16  1  0
 23 18  1  0
 19 26  1  1
M  CHG  1  23   1
M  END
$$$$
