
     RDKit          3D

 26 30  0  0  0  0  0  0  0  0999 V2000
   -0.8123    3.1262    3.8609 O   0  0  0  0  0  0  0  0  0  0  0  0
   -0.3638    3.4730    5.0089 C   0  0  0  0  0  0  0  0  0  0  0  0
   -0.0376    4.8920    5.1939 C   0  0  0  0  0  0  0  0  0  0  0  0
    1.1229    5.2905    4.3053 C   0  0  0  0  0  0  0  0  0  0  0  0
    1.4513    4.9122    3.0869 C   0  0  0  0  0  0  0  0  0  0  0  0
    2.5520    5.4246    2.5039 C   0  0  0  0  0  0  0  0  0  0  0  0
    3.2989    6.3226    3.1899 C   0  0  0  0  0  0  0  0  0  0  0  0
    2.3673    6.4375    4.7615 S   0  0  0  0  0  0  0  0  0  0  0  0
    0.3750    5.2202    6.5774 C   0  0  0  0  0  0  0  0  0  0  0  0
    1.1325    4.5807    7.4774 C   0  0  0  0  0  0  0  0  0  0  0  0
    1.3477    5.1070    8.6810 C   0  0  0  0  0  0  0  0  0  0  0  0
    0.7649    6.3229    8.9573 C   0  0  0  0  0  0  0  0  0  0  0  0
   -0.1062    6.6748    7.4086 S   0  0  0  0  0  0  0  0  0  0  0  0
   -1.0838    5.7309    4.7918 O   0  0  0  0  0  0  0  0  0  0  0  0
   -0.2417    2.4761    5.9291 O   0  0  0  0  0  0  0  0  0  0  0  0
    0.1906    1.1464    5.6053 C   0  0  2  0  0  0  0  0  0  0  0  0
    0.9787    0.5839    6.7483 C   0  0  0  0  0  0  0  0  0  0  0  0
    2.1059   -0.3007    6.3795 C   0  0  2  0  0  0  0  0  0  0  0  0
    3.3122    0.5350    5.9371 C   0  0  2  0  0  0  0  0  0  0  0  0
    3.2301    0.6083    4.4451 C   0  0  2  0  0  0  0  0  0  0  0  0
    1.8866   -0.0368    4.1703 C   0  0  2  0  0  0  0  0  0  0  0  0
    0.8427    1.0305    4.2796 C   0  0  0  0  0  0  0  0  0  0  0  0
    1.8051   -1.0583    5.1780 N   0  0  0  0  0  4  0  0  0  0  0  0
    2.8085   -2.0613    4.8850 C   0  0  0  0  0  0  0  0  0  0  0  0
    0.5309   -1.7279    5.2350 C   0  0  0  0  0  0  0  0  0  0  0  0
    4.2412   -0.0457    5.0873 O   0  0  0  0  0  0  0  0  0  0  0  0
  1  2  2  0
  2  3  1  0
  3  4  1  0
  4  5  2  0
  5  6  1  0
  6  7  2  0
  7  8  1  0
  3  9  1  0
  9 10  2  0
 10 11  1  0
 11 12  2  0
 12 13  1  0
  3 14  1  0
  2 15  1  0
 16 15  1  1
 16 17  1  0
 18 17  1  6
 18 19  1  0
 19 20  1  0
 20 21  1  0
 21 22  1  1
 21 23  1  0
 23 24  1  0
 23 25  1  0
 20 26  1  6
  8  4  1  0
 13  9  1  0
 22 16  1  0
 23 18  1  0
 19 26  1  6
M  CHG  1  23   1
M  END
$$$$
