
     RDKit          3D

 26 30  0  0  0  0  0  0  0  0999 V2000
    1.5887    2.7980    4.6415 O   0  0  0  0  0  0  0  0  0  0  0  0
    0.5474    3.0397    5.3462 C   0  0  0  0  0  0  0  0  0  0  0  0
    0.2313    4.4498    5.6030 C   0  0  0  0  0  0  0  0  0  0  0  0
    1.0763    5.3516    4.7267 C   0  0  0  0  0  0  0  0  0  0  0  0
    2.3651    5.3352    4.4542 C   0  0  0  0  0  0  0  0  0  0  0  0
    2.8834    6.2635    3.6273 C   0  0  0  0  0  0  0  0  0  0  0  0
    2.0604    7.1973    3.0928 C   0  0  0  0  0  0  0  0  0  0  0  0
    0.4509    6.7144    3.8190 S   0  0  0  0  0  0  0  0  0  0  0  0
    0.5030    4.8638    6.9983 C   0  0  0  0  0  0  0  0  0  0  0  0
    0.4707    6.0500    7.6186 C   0  0  0  0  0  0  0  0  0  0  0  0
    0.7707    6.1487    8.9117 C   0  0  0  0  0  0  0  0  0  0  0  0
    1.1115    4.9925    9.5760 C   0  0  0  0  0  0  0  0  0  0  0  0
    0.9810    3.7575    8.2575 S   0  0  0  0  0  0  0  0  0  0  0  0
   -1.0869    4.7672    5.2547 O   0  0  0  0  0  0  0  0  0  0  0  0
   -0.1487    1.9511    5.7770 O   0  0  0  0  0  0  0  0  0  0  0  0
    0.2939    0.5994    5.5845 C   0  0  2  0  0  0  0  0  0  0  0  0
    0.5099   -0.0512    6.9165 C   0  0  0  0  0  0  0  0  0  0  0  0
    1.6317   -1.0133    6.9887 C   0  0  2  0  0  0  0  0  0  0  0  0
    2.9632   -0.2654    7.1192 C   0  0  2  0  0  0  0  0  0  0  0  0
    3.5021   -0.1500    5.7284 C   0  0  2  0  0  0  0  0  0  0  0  0
    2.3502   -0.6796    4.8980 C   0  0  2  0  0  0  0  0  0  0  0  0
    1.4217    0.4641    4.6327 C   0  0  0  0  0  0  0  0  0  0  0  0
    1.8008   -1.7154    5.7292 N   0  0  0  0  0  4  0  0  0  0  0  0
    2.7714   -2.7875    5.8139 C   0  0  0  0  0  0  0  0  0  0  0  0
    0.5750   -2.2831    5.2284 C   0  0  0  0  0  0  0  0  0  0  0  0
    4.1198   -0.8974    6.6888 O   0  0  0  0  0  0  0  0  0  0  0  0
  1  2  2  0
  2  3  1  0
  3  4  1  0
  4  5  2  0
  5  6  1  0
  6  7  2  0
  7  8  1  0
  3  9  1  0
  9 10  2  0
 10 11  1  0
 11 12  2  0
 12 13  1  0
  3 14  1  0
  2 15  1  0
 16 15  1  1
 16 17  1  0
 18 17  1  6
 18 19  1  0
 19 20  1  0
 20 21  1  0
 21 22  1  1
 21 23  1  0
 23 24  1  0
 23 25  1  0
 20 26  1  1
  8  4  1  0
 13  9  1  0
 22 16  1  0
 23 18  1  0
 19 26  1  1
M  CHG  1  23   1
M  END
$$$$
