
     RDKit          3D

 26 30  0  0  0  0  0  0  0  0999 V2000
   -1.1859    2.9472    4.5633 O   0  0  0  0  0  0  0  0  0  0  0  0
   -0.1434    3.3332    5.1985 C   0  0  0  0  0  0  0  0  0  0  0  0
    0.2167    4.7516    5.0850 C   0  0  0  0  0  0  0  0  0  0  0  0
    1.4820    4.9145    4.2680 C   0  0  0  0  0  0  0  0  0  0  0  0
    2.7455    4.9915    4.6329 C   0  0  0  0  0  0  0  0  0  0  0  0
    3.7023    5.1360    3.6961 C   0  0  0  0  0  0  0  0  0  0  0  0
    3.3387    5.1987    2.3927 C   0  0  0  0  0  0  0  0  0  0  0  0
    1.5193    5.0413    2.5202 S   0  0  0  0  0  0  0  0  0  0  0  0
    0.4888    5.3909    6.3924 C   0  0  0  0  0  0  0  0  0  0  0  0
    0.7682    6.6508    6.7491 C   0  0  0  0  0  0  0  0  0  0  0  0
    0.9798    6.9645    8.0253 C   0  0  0  0  0  0  0  0  0  0  0  0
    0.8997    5.9499    8.9518 C   0  0  0  0  0  0  0  0  0  0  0  0
    0.5066    4.5248    7.9050 S   0  0  0  0  0  0  0  0  0  0  0  0
   -0.7453    5.4857    4.3811 O   0  0  0  0  0  0  0  0  0  0  0  0
    0.5125    2.3744    5.9097 O   0  0  0  0  0  0  0  0  0  0  0  0
    0.6555    1.0168    5.4665 C   0  0  2  0  0  0  0  0  0  0  0  0
    1.1202    0.1641    6.6071 C   0  0  0  0  0  0  0  0  0  0  0  0
    2.0436   -0.9366    6.2535 C   0  0  2  0  0  0  0  0  0  0  0  0
    3.4638   -0.3943    6.0583 C   0  0  2  0  0  0  0  0  0  0  0  0
    3.6094   -0.1571    4.5884 C   0  0  2  0  0  0  0  0  0  0  0  0
    2.2022   -0.4109    4.0862 C   0  0  2  0  0  0  0  0  0  0  0  0
    1.4384    0.8699    4.2169 C   0  0  0  0  0  0  0  0  0  0  0  0
    1.7403   -1.4720    4.9385 N   0  0  0  0  0  4  0  0  0  0  0  0
    2.5059   -2.6627    4.6307 C   0  0  0  0  0  0  0  0  0  0  0  0
    0.3478   -1.7995    4.7678 C   0  0  0  0  0  0  0  0  0  0  0  0
    4.3360   -1.1053    5.2482 O   0  0  0  0  0  0  0  0  0  0  0  0
  1  2  2  0
  2  3  1  0
  3  4  1  0
  4  5  2  0
  5  6  1  0
  6  7  2  0
  7  8  1  0
  3  9  1  0
  9 10  2  0
 10 11  1  0
 11 12  2  0
 12 13  1  0
  3 14  1  0
  2 15  1  0
 16 15  1  1
 16 17  1  0
 18 17  1  6
 18 19  1  0
 19 20  1  0
 20 21  1  0
 21 22  1  1
 21 23  1  0
 23 24  1  0
 23 25  1  0
 20 26  1  6
  8  4  1  0
 13  9  1  0
 22 16  1  0
 23 18  1  0
 19 26  1  6
M  CHG  1  23   1
M  END
$$$$
