
     RDKit          3D

 26 30  0  0  0  0  0  0  0  0999 V2000
   -0.4124    2.7095    6.8435 O   0  0  0  0  0  0  0  0  0  0  0  0
   -0.2749    3.0294    5.6114 C   0  0  0  0  0  0  0  0  0  0  0  0
   -0.0960    4.4549    5.3110 C   0  0  0  0  0  0  0  0  0  0  0  0
    1.0801    4.6575    4.3777 C   0  0  0  0  0  0  0  0  0  0  0  0
    1.1275    4.9434    3.0925 C   0  0  0  0  0  0  0  0  0  0  0  0
    2.3211    5.0758    2.4828 C   0  0  0  0  0  0  0  0  0  0  0  0
    3.4509    4.9109    3.2117 C   0  0  0  0  0  0  0  0  0  0  0  0
    2.7595    4.5447    4.8667 S   0  0  0  0  0  0  0  0  0  0  0  0
    0.1890    5.2729    6.5117 C   0  0  0  0  0  0  0  0  0  0  0  0
    0.8474    6.4245    6.6935 C   0  0  0  0  0  0  0  0  0  0  0  0
    0.9639    6.9561    7.9082 C   0  0  0  0  0  0  0  0  0  0  0  0
    0.3849    6.2790    8.9573 C   0  0  0  0  0  0  0  0  0  0  0  0
   -0.3343    4.8439    8.1181 S   0  0  0  0  0  0  0  0  0  0  0  0
   -1.1861    4.9881    4.6129 O   0  0  0  0  0  0  0  0  0  0  0  0
   -0.3112    2.0010    4.7191 O   0  0  0  0  0  0  0  0  0  0  0  0
    0.1464    0.6741    5.0191 C   0  0  2  0  0  0  0  0  0  0  0  0
    0.9229    0.6899    6.3000 C   0  0  0  0  0  0  0  0  0  0  0  0
    2.0693   -0.2429    6.3695 C   0  0  2  0  0  0  0  0  0  0  0  0
    3.2705    0.3372    5.6145 C   0  0  2  0  0  0  0  0  0  0  0  0
    3.2132   -0.2567    4.2426 C   0  0  2  0  0  0  0  0  0  0  0  0
    1.8843   -0.9848    4.2685 C   0  0  2  0  0  0  0  0  0  0  0  0
    0.8229   -0.0008    3.8865 C   0  0  0  0  0  0  0  0  0  0  0  0
    1.8006   -1.4588    5.6228 N   0  0  0  0  0  4  0  0  0  0  0  0
    2.8236   -2.4670    5.8113 C   0  0  0  0  0  0  0  0  0  0  0  0
    0.5356   -2.0612    5.9579 C   0  0  0  0  0  0  0  0  0  0  0  0
    4.2226   -0.5392    5.1165 O   0  0  0  0  0  0  0  0  0  0  0  0
  1  2  2  0
  2  3  1  0
  3  4  1  0
  4  5  2  0
  5  6  1  0
  6  7  2  0
  7  8  1  0
  3  9  1  0
  9 10  2  0
 10 11  1  0
 11 12  2  0
 12 13  1  0
  3 14  1  0
  2 15  1  0
 16 15  1  6
 16 17  1  0
 18 17  1  6
 18 19  1  0
 19 20  1  0
 20 21  1  0
 21 22  1  1
 21 23  1  0
 23 24  1  0
 23 25  1  0
 20 26  1  1
  8  4  1  0
 13  9  1  0
 22 16  1  0
 23 18  1  0
 19 26  1  1
M  CHG  1  23   1
M  END
$$$$
