
     RDKit          3D

 26 30  0  0  0  0  0  0  0  0999 V2000
    2.6640    2.7794    4.8831 O   0  0  0  0  0  0  0  0  0  0  0  0
    1.4541    2.8367    5.2979 C   0  0  0  0  0  0  0  0  0  0  0  0
    0.7706    4.1300    5.1765 C   0  0  0  0  0  0  0  0  0  0  0  0
    1.3994    4.9620    4.0777 C   0  0  0  0  0  0  0  0  0  0  0  0
    2.3088    4.6592    3.1739 C   0  0  0  0  0  0  0  0  0  0  0  0
    2.7068    5.5940    2.2897 C   0  0  0  0  0  0  0  0  0  0  0  0
    2.1579    6.8309    2.3524 C   0  0  0  0  0  0  0  0  0  0  0  0
    1.0047    6.6402    3.7613 S   0  0  0  0  0  0  0  0  0  0  0  0
    0.8502    4.9496    6.4069 C   0  0  0  0  0  0  0  0  0  0  0  0
   -0.0249    5.2083    7.3867 C   0  0  0  0  0  0  0  0  0  0  0  0
    0.3072    6.0023    8.4021 C   0  0  0  0  0  0  0  0  0  0  0  0
    1.5743    6.5396    8.4016 C   0  0  0  0  0  0  0  0  0  0  0  0
    2.2662    5.8516    6.8755 S   0  0  0  0  0  0  0  0  0  0  0  0
   -0.5642    3.9863    4.7794 O   0  0  0  0  0  0  0  0  0  0  0  0
    0.9411    1.6819    5.8063 O   0  0  0  0  0  0  0  0  0  0  0  0
    1.4728    0.3813    5.5135 C   0  0  2  0  0  0  0  0  0  0  0  0
    0.5164   -0.6691    5.9889 C   0  0  0  0  0  0  0  0  0  0  0  0
    1.1306   -1.9077    6.5162 C   0  0  2  0  0  0  0  0  0  0  0  0
    1.6248   -1.6850    7.9498 C   0  0  2  0  0  0  0  0  0  0  0  0
    3.0743   -1.3347    7.8297 C   0  0  2  0  0  0  0  0  0  0  0  0
    3.2458   -1.2082    6.3293 C   0  0  2  0  0  0  0  0  0  0  0  0
    2.8764    0.1918    5.9492 C   0  0  0  0  0  0  0  0  0  0  0  0
    2.3635   -2.2197    5.8157 N   0  0  0  0  0  4  0  0  0  0  0  0
    2.9008   -3.5143    6.1815 C   0  0  0  0  0  0  0  0  0  0  0  0
    2.2202   -2.2025    4.3823 C   0  0  0  0  0  0  0  0  0  0  0  0
    2.6508   -2.4869    8.4260 O   0  0  0  0  0  0  0  0  0  0  0  0
  1  2  2  0
  2  3  1  0
  3  4  1  0
  4  5  2  0
  5  6  1  0
  6  7  2  0
  7  8  1  0
  3  9  1  0
  9 10  2  0
 10 11  1  0
 11 12  2  0
 12 13  1  0
  3 14  1  0
  2 15  1  0
 16 15  1  1
 16 17  1  0
 18 17  1  6
 18 19  1  0
 19 20  1  0
 20 21  1  0
 21 22  1  6
 21 23  1  0
 23 24  1  0
 23 25  1  0
 20 26  1  6
  8  4  1  0
 13  9  1  0
 22 16  1  0
 23 18  1  0
 19 26  1  1
M  CHG  1  23   1
M  END
$$$$
