
     RDKit          3D

 26 30  0  0  0  0  0  0  0  0999 V2000
   -0.5856    3.0779    4.5821 O   0  0  0  0  0  0  0  0  0  0  0  0
    0.1581    2.8237    5.5929 C   0  0  0  0  0  0  0  0  0  0  0  0
    1.2466    3.7682    5.8712 C   0  0  0  0  0  0  0  0  0  0  0  0
    0.7283    4.9629    6.6453 C   0  0  0  0  0  0  0  0  0  0  0  0
    0.3044    6.1419    6.2381 C   0  0  0  0  0  0  0  0  0  0  0  0
   -0.1146    7.0482    7.1420 C   0  0  0  0  0  0  0  0  0  0  0  0
   -0.0896    6.7221    8.4566 C   0  0  0  0  0  0  0  0  0  0  0  0
    0.5734    5.0171    8.3904 S   0  0  0  0  0  0  0  0  0  0  0  0
    1.8723    4.3148    4.6458 C   0  0  0  0  0  0  0  0  0  0  0  0
    3.0271    4.0552    4.0197 C   0  0  0  0  0  0  0  0  0  0  0  0
    3.3594    4.7088    2.9088 C   0  0  0  0  0  0  0  0  0  0  0  0
    2.4751    5.6519    2.4366 C   0  0  0  0  0  0  0  0  0  0  0  0
    1.1447    5.5562    3.6621 S   0  0  0  0  0  0  0  0  0  0  0  0
    2.2251    3.2148    6.7056 O   0  0  0  0  0  0  0  0  0  0  0  0
   -0.1517    1.6985    6.2951 O   0  0  0  0  0  0  0  0  0  0  0  0
    0.0730    0.3692    5.8027 C   0  0  2  0  0  0  0  0  0  0  0  0
    0.7325   -0.4538    6.8665 C   0  0  0  0  0  0  0  0  0  0  0  0
    1.7148   -1.4530    6.3909 C   0  0  2  0  0  0  0  0  0  0  0  0
    3.0490   -0.7716    6.0673 C   0  0  2  0  0  0  0  0  0  0  0  0
    3.0180   -0.4958    4.5972 C   0  0  2  0  0  0  0  0  0  0  0  0
    1.5969   -0.8768    4.2340 C   0  0  2  0  0  0  0  0  0  0  0  0
    0.7325    0.3210    4.4765 C   0  0  0  0  0  0  0  0  0  0  0  0
    1.3290   -1.9925    5.0994 N   0  0  0  0  0  4  0  0  0  0  0  0
    2.1683   -3.0974    4.6829 C   0  0  0  0  0  0  0  0  0  0  0  0
   -0.0362   -2.4511    5.0622 C   0  0  0  0  0  0  0  0  0  0  0  0
    3.8961   -1.3800    5.1537 O   0  0  0  0  0  0  0  0  0  0  0  0
  1  2  2  0
  2  3  1  0
  3  4  1  0
  4  5  2  0
  5  6  1  0
  6  7  2  0
  7  8  1  0
  3  9  1  0
  9 10  2  0
 10 11  1  0
 11 12  2  0
 12 13  1  0
  3 14  1  0
  2 15  1  0
 16 15  1  1
 16 17  1  0
 18 17  1  6
 18 19  1  0
 19 20  1  0
 20 21  1  0
 21 22  1  1
 21 23  1  0
 23 24  1  0
 23 25  1  0
 20 26  1  6
  8  4  1  0
 13  9  1  0
 22 16  1  0
 23 18  1  0
 19 26  1  6
M  CHG  1  23   1
M  END
$$$$
