
     RDKit          3D

 25 28  0  0  0  0  0  0  0  0999 V2000
    1.3437    1.4389    6.3071 C   0  0  0  0  0  0  0  0  0  0  0  0
    2.5829    0.9507    6.6640 C   0  0  0  0  0  0  0  0  0  0  0  0
    2.9756    1.5451    7.7594 O   0  0  0  0  0  0  0  0  0  0  0  0
    2.0916    2.4104    8.1828 C   0  0  0  0  0  0  0  0  0  0  0  0
    1.0335    2.3720    7.2810 C   0  0  0  0  0  0  0  0  0  0  0  0
    2.1778    3.2595    9.3656 C   0  0  0  0  0  0  0  0  0  0  0  0
    3.0642    3.1697   10.3707 N   0  0  0  0  0  0  0  0  0  0  0  0
    2.8597    4.0896   11.2761 N   0  0  0  0  0  0  0  0  0  0  0  0
    3.4669    4.4168   12.4562 C   0  0  0  0  0  0  0  0  0  0  0  0
    2.9838    5.4524   13.1563 N   0  0  0  0  0  0  0  0  0  0  0  0
    1.9356    6.1943   12.7717 C   0  0  0  0  0  0  0  0  0  0  0  0
    1.3393    5.8768   11.6178 N   0  0  0  0  0  0  0  0  0  0  0  0
    1.8107    4.8293   10.8878 C   0  0  0  0  0  0  0  0  0  0  0  0
    1.3969    4.3021    9.6987 N   0  0  0  0  0  0  0  0  0  0  0  0
    1.5128    7.2680   13.5962 N   0  0  0  0  0  0  0  0  0  0  0  0
    0.2947    7.9596   13.2968 C   0  0  0  0  0  0  0  0  0  0  0  0
    0.4734    9.3702   12.8617 C   0  0  0  0  0  0  0  0  0  0  0  0
    0.9216   10.2557   13.9597 C   0  0  0  0  0  0  0  0  0  0  0  0
    0.0656   11.1801   14.5082 C   0  0  0  0  0  0  0  0  0  0  0  0
    0.4809   12.0300   15.5396 C   0  0  0  0  0  0  0  0  0  0  0  0
    1.7583   11.9349   16.0052 C   0  0  0  0  0  0  0  0  0  0  0  0
    2.6268   11.0057   15.4579 C   0  0  0  0  0  0  0  0  0  0  0  0
    2.2296   10.1774   14.4558 C   0  0  0  0  0  0  0  0  0  0  0  0
    2.2034   12.7616   17.0265 O   0  0  0  0  0  0  0  0  0  0  0  0
    4.5719    3.6297   12.8552 N   0  0  0  0  0  0  0  0  0  0  0  0
  1  2  2  0
  2  3  1  0
  3  4  1  0
  4  5  2  0
  4  6  1  0
  6  7  2  0
  7  8  1  0
  8  9  1  0
  9 10  2  0
 10 11  1  0
 11 12  2  0
 12 13  1  0
 13 14  2  0
 11 15  1  0
 15 16  1  0
 16 17  1  0
 17 18  1  0
 18 19  2  0
 19 20  1  0
 20 21  2  0
 21 22  1  0
 22 23  2  0
 21 24  1  0
  9 25  1  0
  5  1  1  0
 14  6  1  0
 13  8  1  0
 23 18  1  0
M  END
$$$$
