
     RDKit          3D

 25 28  0  0  0  0  0  0  0  0999 V2000
    0.8877    2.0945    6.3539 C   0  0  0  0  0  0  0  0  0  0  0  0
    2.0338    1.3701    6.6054 C   0  0  0  0  0  0  0  0  0  0  0  0
    2.5681    1.7918    7.7208 O   0  0  0  0  0  0  0  0  0  0  0  0
    1.8687    2.7579    8.2563 C   0  0  0  0  0  0  0  0  0  0  0  0
    0.7861    2.9807    7.4121 C   0  0  0  0  0  0  0  0  0  0  0  0
    2.1501    3.4752    9.4948 C   0  0  0  0  0  0  0  0  0  0  0  0
    3.1231    3.2162   10.3837 N   0  0  0  0  0  0  0  0  0  0  0  0
    3.0945    4.0541   11.3861 N   0  0  0  0  0  0  0  0  0  0  0  0
    3.8456    4.2131   12.5170 C   0  0  0  0  0  0  0  0  0  0  0  0
    3.5302    5.2081   13.3574 N   0  0  0  0  0  0  0  0  0  0  0  0
    2.5181    6.0646   13.1598 C   0  0  0  0  0  0  0  0  0  0  0  0
    1.7813    5.9119   12.0545 N   0  0  0  0  0  0  0  0  0  0  0  0
    2.0810    4.9088   11.1847 C   0  0  0  0  0  0  0  0  0  0  0  0
    1.5028    4.5372   10.0054 N   0  0  0  0  0  0  0  0  0  0  0  0
    2.2785    7.0804   14.1202 N   0  0  0  0  0  0  0  0  0  0  0  0
    1.4687    8.2104   13.7754 C   0  0  0  0  0  0  0  0  0  0  0  0
    1.9019    8.9331   12.5502 C   0  0  0  0  0  0  0  0  0  0  0  0
    1.2378   10.2466   12.3952 C   0  0  0  0  0  0  0  0  0  0  0  0
    0.2699   10.6516   13.2825 C   0  0  0  0  0  0  0  0  0  0  0  0
   -0.3725   11.8868   13.1405 C   0  0  0  0  0  0  0  0  0  0  0  0
   -0.0280   12.6993   12.1017 C   0  0  0  0  0  0  0  0  0  0  0  0
    0.9466   12.2985   11.2035 C   0  0  0  0  0  0  0  0  0  0  0  0
    1.5741   11.0999   11.3359 C   0  0  0  0  0  0  0  0  0  0  0  0
   -0.6444   13.9303   11.9308 O   0  0  0  0  0  0  0  0  0  0  0  0
    4.9115    3.3058   12.7185 N   0  0  0  0  0  0  0  0  0  0  0  0
  1  2  2  0
  2  3  1  0
  3  4  1  0
  4  5  2  0
  4  6  1  0
  6  7  2  0
  7  8  1  0
  8  9  1  0
  9 10  2  0
 10 11  1  0
 11 12  2  0
 12 13  1  0
 13 14  2  0
 11 15  1  0
 15 16  1  0
 16 17  1  0
 17 18  1  0
 18 19  2  0
 19 20  1  0
 20 21  2  0
 21 22  1  0
 22 23  2  0
 21 24  1  0
  9 25  1  0
  5  1  1  0
 14  6  1  0
 13  8  1  0
 23 18  1  0
M  END
$$$$
