
     RDKit          3D

 25 28  0  0  0  0  0  0  0  0999 V2000
    1.4322    0.2733    6.5125 C   0  0  0  0  0  0  0  0  0  0  0  0
    2.7124   -0.0098    6.9393 C   0  0  0  0  0  0  0  0  0  0  0  0
    3.0496    0.8433    7.8700 O   0  0  0  0  0  0  0  0  0  0  0  0
    2.0891    1.6959    8.1145 C   0  0  0  0  0  0  0  0  0  0  0  0
    1.0375    1.3647    7.2666 C   0  0  0  0  0  0  0  0  0  0  0  0
    2.0973    2.7875    9.0818 C   0  0  0  0  0  0  0  0  0  0  0  0
    2.9838    2.9950   10.0692 N   0  0  0  0  0  0  0  0  0  0  0  0
    2.6976    4.0702   10.7546 N   0  0  0  0  0  0  0  0  0  0  0  0
    3.2696    4.6978   11.8258 C   0  0  0  0  0  0  0  0  0  0  0  0
    2.6968    5.8170   12.2897 N   0  0  0  0  0  0  0  0  0  0  0  0
    1.5906    6.3656   11.7676 C   0  0  0  0  0  0  0  0  0  0  0  0
    1.0286    5.7541   10.7197 N   0  0  0  0  0  0  0  0  0  0  0  0
    1.5909    4.6157   10.2294 C   0  0  0  0  0  0  0  0  0  0  0  0
    1.2287    3.8081    9.1904 N   0  0  0  0  0  0  0  0  0  0  0  0
    1.0741    7.5542   12.3437 N   0  0  0  0  0  0  0  0  0  0  0  0
    1.7726    8.1847   13.4236 C   0  0  0  0  0  0  0  0  0  0  0  0
    1.4503    7.6434   14.7705 C   0  0  0  0  0  0  0  0  0  0  0  0
    2.4816    7.9697   15.7807 C   0  0  0  0  0  0  0  0  0  0  0  0
    3.5059    8.8355   15.4819 C   0  0  0  0  0  0  0  0  0  0  0  0
    4.4927    9.1438   16.4252 C   0  0  0  0  0  0  0  0  0  0  0  0
    4.4320    8.5726   17.6612 C   0  0  0  0  0  0  0  0  0  0  0  0
    3.4028    7.6994   17.9700 C   0  0  0  0  0  0  0  0  0  0  0  0
    2.4413    7.3957   17.0582 C   0  0  0  0  0  0  0  0  0  0  0  0
    5.3934    8.8558   18.6204 O   0  0  0  0  0  0  0  0  0  0  0  0
    4.4361    4.1132   12.3710 N   0  0  0  0  0  0  0  0  0  0  0  0
  1  2  2  0
  2  3  1  0
  3  4  1  0
  4  5  2  0
  4  6  1  0
  6  7  2  0
  7  8  1  0
  8  9  1  0
  9 10  2  0
 10 11  1  0
 11 12  2  0
 12 13  1  0
 13 14  2  0
 11 15  1  0
 15 16  1  0
 16 17  1  0
 17 18  1  0
 18 19  2  0
 19 20  1  0
 20 21  2  0
 21 22  1  0
 22 23  2  0
 21 24  1  0
  9 25  1  0
  5  1  1  0
 14  6  1  0
 13  8  1  0
 23 18  1  0
M  END
$$$$
