
     RDKit          3D

 25 28  0  0  0  0  0  0  0  0999 V2000
    0.8547    0.4310    6.9106 C   0  0  0  0  0  0  0  0  0  0  0  0
    1.9529   -0.1742    7.4840 C   0  0  0  0  0  0  0  0  0  0  0  0
    2.4344    0.6088    8.4128 O   0  0  0  0  0  0  0  0  0  0  0  0
    1.7430    1.7133    8.5195 C   0  0  0  0  0  0  0  0  0  0  0  0
    0.7241    1.6377    7.5758 C   0  0  0  0  0  0  0  0  0  0  0  0
    1.9765    2.8202    9.4401 C   0  0  0  0  0  0  0  0  0  0  0  0
    2.8227    2.8487   10.4827 N   0  0  0  0  0  0  0  0  0  0  0  0
    2.7861    3.9994   11.1008 N   0  0  0  0  0  0  0  0  0  0  0  0
    3.4343    4.5192   12.1861 C   0  0  0  0  0  0  0  0  0  0  0  0
    3.1471    5.7737   12.5600 N   0  0  0  0  0  0  0  0  0  0  0  0
    2.2586    6.5583   11.9341 C   0  0  0  0  0  0  0  0  0  0  0  0
    1.6227    6.0529   10.8720 N   0  0  0  0  0  0  0  0  0  0  0  0
    1.8964    4.7811   10.4718 C   0  0  0  0  0  0  0  0  0  0  0  0
    1.4009    4.0353    9.4415 N   0  0  0  0  0  0  0  0  0  0  0  0
    2.0368    7.8717   12.4212 N   0  0  0  0  0  0  0  0  0  0  0  0
    1.8262    8.0863   13.8217 C   0  0  0  0  0  0  0  0  0  0  0  0
    2.9308    8.8033   14.5121 C   0  0  0  0  0  0  0  0  0  0  0  0
    2.9737    8.5256   15.9652 C   0  0  0  0  0  0  0  0  0  0  0  0
    1.8640    8.0488   16.6206 C   0  0  0  0  0  0  0  0  0  0  0  0
    1.8892    7.7923   17.9961 C   0  0  0  0  0  0  0  0  0  0  0  0
    3.0376    8.0207   18.6938 C   0  0  0  0  0  0  0  0  0  0  0  0
    4.1601    8.5007   18.0405 C   0  0  0  0  0  0  0  0  0  0  0  0
    4.1421    8.7521   16.7046 C   0  0  0  0  0  0  0  0  0  0  0  0
    3.0979    7.7773   20.0582 O   0  0  0  0  0  0  0  0  0  0  0  0
    4.3702    3.6856   12.8412 N   0  0  0  0  0  0  0  0  0  0  0  0
  1  2  2  0
  2  3  1  0
  3  4  1  0
  4  5  2  0
  4  6  1  0
  6  7  2  0
  7  8  1  0
  8  9  1  0
  9 10  2  0
 10 11  1  0
 11 12  2  0
 12 13  1  0
 13 14  2  0
 11 15  1  0
 15 16  1  0
 16 17  1  0
 17 18  1  0
 18 19  2  0
 19 20  1  0
 20 21  2  0
 21 22  1  0
 22 23  2  0
 21 24  1  0
  9 25  1  0
  5  1  1  0
 14  6  1  0
 13  8  1  0
 23 18  1  0
M  END
$$$$
