
     RDKit          3D

 25 28  0  0  0  0  0  0  0  0999 V2000
    0.7068    0.2407    7.6097 C   0  0  0  0  0  0  0  0  0  0  0  0
    1.9146    0.4551    6.9799 C   0  0  0  0  0  0  0  0  0  0  0  0
    2.4700    1.5281    7.4775 O   0  0  0  0  0  0  0  0  0  0  0  0
    1.7277    2.0690    8.4080 C   0  0  0  0  0  0  0  0  0  0  0  0
    0.5914    1.2751    8.5221 C   0  0  0  0  0  0  0  0  0  0  0  0
    2.0152    3.2687    9.1860 C   0  0  0  0  0  0  0  0  0  0  0  0
    3.1458    3.9937    9.1784 N   0  0  0  0  0  0  0  0  0  0  0  0
    3.0712    5.0100    9.9964 N   0  0  0  0  0  0  0  0  0  0  0  0
    3.9261    6.0183   10.3441 C   0  0  0  0  0  0  0  0  0  0  0  0
    3.5141    6.9219   11.2439 N   0  0  0  0  0  0  0  0  0  0  0  0
    2.3087    6.9015   11.8299 C   0  0  0  0  0  0  0  0  0  0  0  0
    1.4699    5.9165   11.4920 N   0  0  0  0  0  0  0  0  0  0  0  0
    1.8642    4.9859   10.5804 C   0  0  0  0  0  0  0  0  0  0  0  0
    1.2185    3.8983   10.0673 N   0  0  0  0  0  0  0  0  0  0  0  0
    1.9828    7.9127   12.7694 N   0  0  0  0  0  0  0  0  0  0  0  0
    0.8334    7.7604   13.6104 C   0  0  0  0  0  0  0  0  0  0  0  0
    1.0413    6.8814   14.7916 C   0  0  0  0  0  0  0  0  0  0  0  0
    1.6779    7.5874   15.9259 C   0  0  0  0  0  0  0  0  0  0  0  0
    2.6122    6.9544   16.7099 C   0  0  0  0  0  0  0  0  0  0  0  0
    3.2134    7.6080   17.7915 C   0  0  0  0  0  0  0  0  0  0  0  0
    2.8628    8.8959   18.0679 C   0  0  0  0  0  0  0  0  0  0  0  0
    1.9224    9.5407   17.2823 C   0  0  0  0  0  0  0  0  0  0  0  0
    1.3347    8.9113   16.2305 C   0  0  0  0  0  0  0  0  0  0  0  0
    3.4388    9.5739   19.1323 O   0  0  0  0  0  0  0  0  0  0  0  0
    5.1958    6.0333    9.7217 N   0  0  0  0  0  0  0  0  0  0  0  0
  1  2  2  0
  2  3  1  0
  3  4  1  0
  4  5  2  0
  4  6  1  0
  6  7  2  0
  7  8  1  0
  8  9  1  0
  9 10  2  0
 10 11  1  0
 11 12  2  0
 12 13  1  0
 13 14  2  0
 11 15  1  0
 15 16  1  0
 16 17  1  0
 17 18  1  0
 18 19  2  0
 19 20  1  0
 20 21  2  0
 21 22  1  0
 22 23  2  0
 21 24  1  0
  9 25  1  0
  5  1  1  0
 14  6  1  0
 13  8  1  0
 23 18  1  0
M  END
$$$$
