
     RDKit          3D

 25 28  0  0  0  0  0  0  0  0999 V2000
    1.2896    0.4391    7.1696 C   0  0  0  0  0  0  0  0  0  0  0  0
    2.5187    0.1064    7.6988 C   0  0  0  0  0  0  0  0  0  0  0  0
    2.8746    1.0237    8.5587 O   0  0  0  0  0  0  0  0  0  0  0  0
    1.9748    1.9668    8.6590 C   0  0  0  0  0  0  0  0  0  0  0  0
    0.9456    1.6294    7.7864 C   0  0  0  0  0  0  0  0  0  0  0  0
    2.0207    3.1492    9.5118 C   0  0  0  0  0  0  0  0  0  0  0  0
    2.8652    3.3888   10.5283 N   0  0  0  0  0  0  0  0  0  0  0  0
    2.6325    4.5484   11.0840 N   0  0  0  0  0  0  0  0  0  0  0  0
    3.1946    5.2377   12.1219 C   0  0  0  0  0  0  0  0  0  0  0  0
    2.6927    6.4402   12.4350 N   0  0  0  0  0  0  0  0  0  0  0  0
    1.6672    7.0158   11.7916 C   0  0  0  0  0  0  0  0  0  0  0  0
    1.1150    6.3442   10.7758 N   0  0  0  0  0  0  0  0  0  0  0  0
    1.6063    5.1207   10.4377 C   0  0  0  0  0  0  0  0  0  0  0  0
    1.2360    4.2399    9.4629 N   0  0  0  0  0  0  0  0  0  0  0  0
    1.2209    8.2944   12.2127 N   0  0  0  0  0  0  0  0  0  0  0  0
    0.2687    8.4019   13.2774 C   0  0  0  0  0  0  0  0  0  0  0  0
    0.5975    9.4279   14.3021 C   0  0  0  0  0  0  0  0  0  0  0  0
    1.4066    8.8857   15.4165 C   0  0  0  0  0  0  0  0  0  0  0  0
    0.9806    7.7857   16.1213 C   0  0  0  0  0  0  0  0  0  0  0  0
    1.7318    7.2701   17.1835 C   0  0  0  0  0  0  0  0  0  0  0  0
    2.9066    7.8731   17.5209 C   0  0  0  0  0  0  0  0  0  0  0  0
    3.3429    8.9817   16.8152 C   0  0  0  0  0  0  0  0  0  0  0  0
    2.6178    9.4875   15.7826 C   0  0  0  0  0  0  0  0  0  0  0  0
    3.6764    7.3884   18.5683 O   0  0  0  0  0  0  0  0  0  0  0  0
    4.2760    4.6242   12.7958 N   0  0  0  0  0  0  0  0  0  0  0  0
  1  2  2  0
  2  3  1  0
  3  4  1  0
  4  5  2  0
  4  6  1  0
  6  7  2  0
  7  8  1  0
  8  9  1  0
  9 10  2  0
 10 11  1  0
 11 12  2  0
 12 13  1  0
 13 14  2  0
 11 15  1  0
 15 16  1  0
 16 17  1  0
 17 18  1  0
 18 19  2  0
 19 20  1  0
 20 21  2  0
 21 22  1  0
 22 23  2  0
 21 24  1  0
  9 25  1  0
  5  1  1  0
 14  6  1  0
 13  8  1  0
 23 18  1  0
M  END
$$$$
