
     RDKit          3D

 25 28  0  0  0  0  0  0  0  0999 V2000
    1.9280    0.6600    5.9136 C   0  0  0  0  0  0  0  0  0  0  0  0
    3.1476    0.3187    6.4588 C   0  0  0  0  0  0  0  0  0  0  0  0
    3.3749    1.0738    7.5008 O   0  0  0  0  0  0  0  0  0  0  0  0
    2.3948    1.9131    7.7118 C   0  0  0  0  0  0  0  0  0  0  0  0
    1.4501    1.6799    6.7181 C   0  0  0  0  0  0  0  0  0  0  0  0
    2.2918    2.9070    8.7744 C   0  0  0  0  0  0  0  0  0  0  0  0
    3.0676    3.0174    9.8652 N   0  0  0  0  0  0  0  0  0  0  0  0
    2.7016    4.0224   10.6161 N   0  0  0  0  0  0  0  0  0  0  0  0
    3.1521    4.5435   11.7966 C   0  0  0  0  0  0  0  0  0  0  0  0
    2.5242    5.6141   12.3021 N   0  0  0  0  0  0  0  0  0  0  0  0
    1.4746    6.2120   11.7209 C   0  0  0  0  0  0  0  0  0  0  0  0
    1.0314    5.7047   10.5658 N   0  0  0  0  0  0  0  0  0  0  0  0
    1.6518    4.6176   10.0313 C   0  0  0  0  0  0  0  0  0  0  0  0
    1.4080    3.9139    8.8875 N   0  0  0  0  0  0  0  0  0  0  0  0
    0.8902    7.3408   12.3499 N   0  0  0  0  0  0  0  0  0  0  0  0
    1.4362    7.8341   13.5788 C   0  0  0  0  0  0  0  0  0  0  0  0
    2.9210    7.8070   13.6528 C   0  0  0  0  0  0  0  0  0  0  0  0
    3.4355    8.2038   14.9825 C   0  0  0  0  0  0  0  0  0  0  0  0
    2.7220    9.0642   15.7818 C   0  0  0  0  0  0  0  0  0  0  0  0
    3.2029    9.4549   17.0366 C   0  0  0  0  0  0  0  0  0  0  0  0
    4.4011    8.9701   17.4694 C   0  0  0  0  0  0  0  0  0  0  0  0
    5.1258    8.1024   16.6700 C   0  0  0  0  0  0  0  0  0  0  0  0
    4.6643    7.7193   15.4501 C   0  0  0  0  0  0  0  0  0  0  0  0
    4.9078    9.3364   18.7078 O   0  0  0  0  0  0  0  0  0  0  0  0
    4.2597    3.9075   12.4038 N   0  0  0  0  0  0  0  0  0  0  0  0
  1  2  2  0
  2  3  1  0
  3  4  1  0
  4  5  2  0
  4  6  1  0
  6  7  2  0
  7  8  1  0
  8  9  1  0
  9 10  2  0
 10 11  1  0
 11 12  2  0
 12 13  1  0
 13 14  2  0
 11 15  1  0
 15 16  1  0
 16 17  1  0
 17 18  1  0
 18 19  2  0
 19 20  1  0
 20 21  2  0
 21 22  1  0
 22 23  2  0
 21 24  1  0
  9 25  1  0
  5  1  1  0
 14  6  1  0
 13  8  1  0
 23 18  1  0
M  END
$$$$
