
     RDKit          3D

 25 28  0  0  0  0  0  0  0  0999 V2000
    3.0430    0.1603    6.8116 C   0  0  0  0  0  0  0  0  0  0  0  0
    1.9428    0.6827    6.1652 C   0  0  0  0  0  0  0  0  0  0  0  0
    1.4616    1.6700    6.8733 O   0  0  0  0  0  0  0  0  0  0  0  0
    2.1550    1.8644    7.9645 C   0  0  0  0  0  0  0  0  0  0  0  0
    3.1750    0.9189    7.9617 C   0  0  0  0  0  0  0  0  0  0  0  0
    1.9224    2.8693    8.9957 C   0  0  0  0  0  0  0  0  0  0  0  0
    2.6120    3.0428   10.1352 N   0  0  0  0  0  0  0  0  0  0  0  0
    2.1388    4.0383   10.8371 N   0  0  0  0  0  0  0  0  0  0  0  0
    2.4753    4.6048   12.0346 C   0  0  0  0  0  0  0  0  0  0  0  0
    1.7549    5.6467   12.4722 N   0  0  0  0  0  0  0  0  0  0  0  0
    0.7174    6.1737   11.8068 C   0  0  0  0  0  0  0  0  0  0  0  0
    0.3855    5.6219   10.6349 N   0  0  0  0  0  0  0  0  0  0  0  0
    1.1015    4.5626   10.1682 C   0  0  0  0  0  0  0  0  0  0  0  0
    0.9783    3.8262    9.0256 N   0  0  0  0  0  0  0  0  0  0  0  0
    0.0284    7.2783   12.3693 N   0  0  0  0  0  0  0  0  0  0  0  0
    0.4893    7.8560   13.5963 C   0  0  0  0  0  0  0  0  0  0  0  0
    1.6707    8.7480   13.4565 C   0  0  0  0  0  0  0  0  0  0  0  0
    2.5068    8.7867   14.6771 C   0  0  0  0  0  0  0  0  0  0  0  0
    1.9472    9.0628   15.9013 C   0  0  0  0  0  0  0  0  0  0  0  0
    2.7290    9.1124   17.0610 C   0  0  0  0  0  0  0  0  0  0  0  0
    4.0692    8.8816   16.9692 C   0  0  0  0  0  0  0  0  0  0  0  0
    4.6405    8.6024   15.7393 C   0  0  0  0  0  0  0  0  0  0  0  0
    3.8867    8.5529   14.6091 C   0  0  0  0  0  0  0  0  0  0  0  0
    4.8740    8.9229   18.0984 O   0  0  0  0  0  0  0  0  0  0  0  0
    3.5708    4.0435   12.7307 N   0  0  0  0  0  0  0  0  0  0  0  0
  1  2  2  0
  2  3  1  0
  3  4  1  0
  4  5  2  0
  4  6  1  0
  6  7  2  0
  7  8  1  0
  8  9  1  0
  9 10  2  0
 10 11  1  0
 11 12  2  0
 12 13  1  0
 13 14  2  0
 11 15  1  0
 15 16  1  0
 16 17  1  0
 17 18  1  0
 18 19  2  0
 19 20  1  0
 20 21  2  0
 21 22  1  0
 22 23  2  0
 21 24  1  0
  9 25  1  0
  5  1  1  0
 14  6  1  0
 13  8  1  0
 23 18  1  0
M  END
$$$$
