
     RDKit          3D

 25 28  0  0  0  0  0  0  0  0999 V2000
    1.2548    0.4606    6.5037 C   0  0  0  0  0  0  0  0  0  0  0  0
    2.5047    0.0995    6.9605 C   0  0  0  0  0  0  0  0  0  0  0  0
    2.8782    0.9398    7.8890 O   0  0  0  0  0  0  0  0  0  0  0  0
    1.9709    1.8563    8.1040 C   0  0  0  0  0  0  0  0  0  0  0  0
    0.9174    1.5844    7.2377 C   0  0  0  0  0  0  0  0  0  0  0  0
    2.0310    2.9566    9.0596 C   0  0  0  0  0  0  0  0  0  0  0  0
    2.9223    3.1287   10.0495 N   0  0  0  0  0  0  0  0  0  0  0  0
    2.6889    4.2247   10.7218 N   0  0  0  0  0  0  0  0  0  0  0  0
    3.2874    4.8336   11.7893 C   0  0  0  0  0  0  0  0  0  0  0  0
    2.7712    5.9860   12.2380 N   0  0  0  0  0  0  0  0  0  0  0  0
    1.6976    6.5854   11.7041 C   0  0  0  0  0  0  0  0  0  0  0  0
    1.1097    5.9924   10.6598 N   0  0  0  0  0  0  0  0  0  0  0  0
    1.6146    4.8211   10.1848 C   0  0  0  0  0  0  0  0  0  0  0  0
    1.2160    4.0219    9.1525 N   0  0  0  0  0  0  0  0  0  0  0  0
    1.2406    7.8055   12.2646 N   0  0  0  0  0  0  0  0  0  0  0  0
    1.9678    8.4128   13.3388 C   0  0  0  0  0  0  0  0  0  0  0  0
    1.5344    7.9912   14.6973 C   0  0  0  0  0  0  0  0  0  0  0  0
    2.5845    8.1907   15.7210 C   0  0  0  0  0  0  0  0  0  0  0  0
    3.4336    7.1659   16.0629 C   0  0  0  0  0  0  0  0  0  0  0  0
    4.4237    7.3393   17.0367 C   0  0  0  0  0  0  0  0  0  0  0  0
    4.5439    8.5485   17.6540 C   0  0  0  0  0  0  0  0  0  0  0  0
    3.6923    9.5862   17.3148 C   0  0  0  0  0  0  0  0  0  0  0  0
    2.7285    9.4242   16.3699 C   0  0  0  0  0  0  0  0  0  0  0  0
    5.5141    8.7554   18.6238 O   0  0  0  0  0  0  0  0  0  0  0  0
    4.4193    4.1953   12.3471 N   0  0  0  0  0  0  0  0  0  0  0  0
  1  2  2  0
  2  3  1  0
  3  4  1  0
  4  5  2  0
  4  6  1  0
  6  7  2  0
  7  8  1  0
  8  9  1  0
  9 10  2  0
 10 11  1  0
 11 12  2  0
 12 13  1  0
 13 14  2  0
 11 15  1  0
 15 16  1  0
 16 17  1  0
 17 18  1  0
 18 19  2  0
 19 20  1  0
 20 21  2  0
 21 22  1  0
 22 23  2  0
 21 24  1  0
  9 25  1  0
  5  1  1  0
 14  6  1  0
 13  8  1  0
 23 18  1  0
M  END
$$$$
