
     RDKit          3D

 25 28  0  0  0  0  0  0  0  0999 V2000
    2.0876    0.3541    6.2187 C   0  0  0  0  0  0  0  0  0  0  0  0
    3.2649    0.0225    6.8553 C   0  0  0  0  0  0  0  0  0  0  0  0
    3.4122    0.7876    7.9043 O   0  0  0  0  0  0  0  0  0  0  0  0
    2.4165    1.6247    8.0350 C   0  0  0  0  0  0  0  0  0  0  0  0
    1.5484    1.3791    6.9766 C   0  0  0  0  0  0  0  0  0  0  0  0
    2.2321    2.6275    9.0781 C   0  0  0  0  0  0  0  0  0  0  0  0
    2.9580    2.7821   10.1976 N   0  0  0  0  0  0  0  0  0  0  0  0
    2.5234    3.7817   10.9185 N   0  0  0  0  0  0  0  0  0  0  0  0
    2.9051    4.3351   12.1086 C   0  0  0  0  0  0  0  0  0  0  0  0
    2.2163    5.3868   12.5729 N   0  0  0  0  0  0  0  0  0  0  0  0
    1.1690    5.9357   11.9414 C   0  0  0  0  0  0  0  0  0  0  0  0
    0.7930    5.3967   10.7769 N   0  0  0  0  0  0  0  0  0  0  0  0
    1.4761    4.3279   10.2835 C   0  0  0  0  0  0  0  0  0  0  0  0
    1.3063    3.6004    9.1411 N   0  0  0  0  0  0  0  0  0  0  0  0
    0.5165    7.0488   12.5300 N   0  0  0  0  0  0  0  0  0  0  0  0
    1.0881    7.6841   13.6795 C   0  0  0  0  0  0  0  0  0  0  0  0
    2.5501    7.9384   13.5846 C   0  0  0  0  0  0  0  0  0  0  0  0
    3.1687    8.2212   14.8991 C   0  0  0  0  0  0  0  0  0  0  0  0
    2.6190    9.1529   15.7464 C   0  0  0  0  0  0  0  0  0  0  0  0
    3.2006    9.4363   16.9873 C   0  0  0  0  0  0  0  0  0  0  0  0
    4.3324    8.7734   17.3577 C   0  0  0  0  0  0  0  0  0  0  0  0
    4.8922    7.8329   16.5096 C   0  0  0  0  0  0  0  0  0  0  0  0
    4.3322    7.5531   15.3028 C   0  0  0  0  0  0  0  0  0  0  0  0
    4.9353    9.0295   18.5806 O   0  0  0  0  0  0  0  0  0  0  0  0
    4.0106    3.7507   12.7689 N   0  0  0  0  0  0  0  0  0  0  0  0
  1  2  2  0
  2  3  1  0
  3  4  1  0
  4  5  2  0
  4  6  1  0
  6  7  2  0
  7  8  1  0
  8  9  1  0
  9 10  2  0
 10 11  1  0
 11 12  2  0
 12 13  1  0
 13 14  2  0
 11 15  1  0
 15 16  1  0
 16 17  1  0
 17 18  1  0
 18 19  2  0
 19 20  1  0
 20 21  2  0
 21 22  1  0
 22 23  2  0
 21 24  1  0
  9 25  1  0
  5  1  1  0
 14  6  1  0
 13  8  1  0
 23 18  1  0
M  END
$$$$
