
     RDKit          3D

 25 28  0  0  0  0  0  0  0  0999 V2000
    1.2529    0.4405    6.5667 C   0  0  0  0  0  0  0  0  0  0  0  0
    2.4949    0.0719    7.0388 C   0  0  0  0  0  0  0  0  0  0  0  0
    2.8438    0.8853    8.0002 O   0  0  0  0  0  0  0  0  0  0  0  0
    1.9270    1.7902    8.2236 C   0  0  0  0  0  0  0  0  0  0  0  0
    0.8936    1.5397    7.3272 C   0  0  0  0  0  0  0  0  0  0  0  0
    1.9607    2.8611    9.2133 C   0  0  0  0  0  0  0  0  0  0  0  0
    2.8206    2.9994   10.2358 N   0  0  0  0  0  0  0  0  0  0  0  0
    2.5699    4.0758   10.9330 N   0  0  0  0  0  0  0  0  0  0  0  0
    3.1364    4.6496   12.0367 C   0  0  0  0  0  0  0  0  0  0  0  0
    2.6103    5.7904   12.5034 N   0  0  0  0  0  0  0  0  0  0  0  0
    1.5564    6.4105   11.9541 C   0  0  0  0  0  0  0  0  0  0  0  0
    0.9999    5.8517   10.8742 N   0  0  0  0  0  0  0  0  0  0  0  0
    1.5154    4.6929   10.3804 C   0  0  0  0  0  0  0  0  0  0  0  0
    1.1470    3.9268    9.3124 N   0  0  0  0  0  0  0  0  0  0  0  0
    1.0862    7.6152   12.5362 N   0  0  0  0  0  0  0  0  0  0  0  0
    1.8429    8.2473   13.5753 C   0  0  0  0  0  0  0  0  0  0  0  0
    1.4821    7.8198   14.9530 C   0  0  0  0  0  0  0  0  0  0  0  0
    2.5082    8.1880   15.9540 C   0  0  0  0  0  0  0  0  0  0  0  0
    3.6365    8.8774   15.5799 C   0  0  0  0  0  0  0  0  0  0  0  0
    4.6187    9.2220   16.5154 C   0  0  0  0  0  0  0  0  0  0  0  0
    4.4482    8.8655   17.8199 C   0  0  0  0  0  0  0  0  0  0  0  0
    3.3138    8.1711   18.2047 C   0  0  0  0  0  0  0  0  0  0  0  0
    2.3562    7.8331   17.3009 C   0  0  0  0  0  0  0  0  0  0  0  0
    5.4016    9.1909   18.7736 O   0  0  0  0  0  0  0  0  0  0  0  0
    4.2477    3.9898   12.6107 N   0  0  0  0  0  0  0  0  0  0  0  0
  1  2  2  0
  2  3  1  0
  3  4  1  0
  4  5  2  0
  4  6  1  0
  6  7  2  0
  7  8  1  0
  8  9  1  0
  9 10  2  0
 10 11  1  0
 11 12  2  0
 12 13  1  0
 13 14  2  0
 11 15  1  0
 15 16  1  0
 16 17  1  0
 17 18  1  0
 18 19  2  0
 19 20  1  0
 20 21  2  0
 21 22  1  0
 22 23  2  0
 21 24  1  0
  9 25  1  0
  5  1  1  0
 14  6  1  0
 13  8  1  0
 23 18  1  0
M  END
$$$$
