
     RDKit          3D

 25 28  0  0  0  0  0  0  0  0999 V2000
    2.1130    0.3979    6.3052 C   0  0  0  0  0  0  0  0  0  0  0  0
    3.2864    0.0956    6.9633 C   0  0  0  0  0  0  0  0  0  0  0  0
    3.4169    0.8935    7.9899 O   0  0  0  0  0  0  0  0  0  0  0  0
    2.4133    1.7260    8.0851 C   0  0  0  0  0  0  0  0  0  0  0  0
    1.5580    1.4410    7.0260 C   0  0  0  0  0  0  0  0  0  0  0  0
    2.2103    2.7584    9.0951 C   0  0  0  0  0  0  0  0  0  0  0  0
    2.8895    2.9212   10.2423 N   0  0  0  0  0  0  0  0  0  0  0  0
    2.4509    3.9492   10.9194 N   0  0  0  0  0  0  0  0  0  0  0  0
    2.7943    4.5213   12.1124 C   0  0  0  0  0  0  0  0  0  0  0  0
    2.1147    5.6019   12.5205 N   0  0  0  0  0  0  0  0  0  0  0  0
    1.1122    6.1628   11.8296 C   0  0  0  0  0  0  0  0  0  0  0  0
    0.7738    5.6055   10.6622 N   0  0  0  0  0  0  0  0  0  0  0  0
    1.4485    4.5073   10.2252 C   0  0  0  0  0  0  0  0  0  0  0  0
    1.3098    3.7568    9.0935 N   0  0  0  0  0  0  0  0  0  0  0  0
    0.4650    7.3069   12.3622 N   0  0  0  0  0  0  0  0  0  0  0  0
    0.7329    7.7151   13.7087 C   0  0  0  0  0  0  0  0  0  0  0  0
    1.7262    8.8142   13.8375 C   0  0  0  0  0  0  0  0  0  0  0  0
    2.6400    8.6285   14.9867 C   0  0  0  0  0  0  0  0  0  0  0  0
    2.1915    8.8024   16.2739 C   0  0  0  0  0  0  0  0  0  0  0  0
    3.0486    8.6398   17.3682 C   0  0  0  0  0  0  0  0  0  0  0  0
    4.3507    8.3024   17.1481 C   0  0  0  0  0  0  0  0  0  0  0  0
    4.8101    8.1250   15.8540 C   0  0  0  0  0  0  0  0  0  0  0  0
    3.9828    8.2816   14.7868 C   0  0  0  0  0  0  0  0  0  0  0  0
    5.2278    8.1332   18.2095 O   0  0  0  0  0  0  0  0  0  0  0  0
    3.8528    3.9241   12.8354 N   0  0  0  0  0  0  0  0  0  0  0  0
  1  2  2  0
  2  3  1  0
  3  4  1  0
  4  5  2  0
  4  6  1  0
  6  7  2  0
  7  8  1  0
  8  9  1  0
  9 10  2  0
 10 11  1  0
 11 12  2  0
 12 13  1  0
 13 14  2  0
 11 15  1  0
 15 16  1  0
 16 17  1  0
 17 18  1  0
 18 19  2  0
 19 20  1  0
 20 21  2  0
 21 22  1  0
 22 23  2  0
 21 24  1  0
  9 25  1  0
  5  1  1  0
 14  6  1  0
 13  8  1  0
 23 18  1  0
M  END
$$$$
