
     RDKit          3D

 25 28  0  0  0  0  0  0  0  0999 V2000
    1.9112    0.2347    6.8927 C   0  0  0  0  0  0  0  0  0  0  0  0
    3.1397    0.0209    7.4813 C   0  0  0  0  0  0  0  0  0  0  0  0
    3.3616    0.9635    8.3586 O   0  0  0  0  0  0  0  0  0  0  0  0
    2.3697    1.8133    8.4156 C   0  0  0  0  0  0  0  0  0  0  0  0
    1.4224    1.3819    7.4932 C   0  0  0  0  0  0  0  0  0  0  0  0
    2.2577    2.9895    9.2709 C   0  0  0  0  0  0  0  0  0  0  0  0
    3.0528    3.3285   10.2990 N   0  0  0  0  0  0  0  0  0  0  0  0
    2.6711    4.4485   10.8535 N   0  0  0  0  0  0  0  0  0  0  0  0
    3.1299    5.1987   11.8999 C   0  0  0  0  0  0  0  0  0  0  0  0
    2.4789    6.3287   12.2083 N   0  0  0  0  0  0  0  0  0  0  0  0
    1.3984    6.7750   11.5524 C   0  0  0  0  0  0  0  0  0  0  0  0
    0.9469    6.0435   10.5282 N   0  0  0  0  0  0  0  0  0  0  0  0
    1.5903    4.8914   10.1946 C   0  0  0  0  0  0  0  0  0  0  0  0
    1.3446    3.9748    9.2135 N   0  0  0  0  0  0  0  0  0  0  0  0
    0.7918    7.9871   11.9697 N   0  0  0  0  0  0  0  0  0  0  0  0
    1.3668    8.7385   13.0450 C   0  0  0  0  0  0  0  0  0  0  0  0
    0.8406    8.3948   14.3926 C   0  0  0  0  0  0  0  0  0  0  0  0
    1.8545    8.5491   15.4598 C   0  0  0  0  0  0  0  0  0  0  0  0
    2.2793    9.7970   15.8476 C   0  0  0  0  0  0  0  0  0  0  0  0
    3.2449    9.9553   16.8481 C   0  0  0  0  0  0  0  0  0  0  0  0
    3.7701    8.8487   17.4459 C   0  0  0  0  0  0  0  0  0  0  0  0
    3.3468    7.5878   17.0609 C   0  0  0  0  0  0  0  0  0  0  0  0
    2.4094    7.4272   16.0896 C   0  0  0  0  0  0  0  0  0  0  0  0
    4.7289    8.9689   18.4412 O   0  0  0  0  0  0  0  0  0  0  0  0
    4.2702    4.7215   12.5870 N   0  0  0  0  0  0  0  0  0  0  0  0
  1  2  2  0
  2  3  1  0
  3  4  1  0
  4  5  2  0
  4  6  1  0
  6  7  2  0
  7  8  1  0
  8  9  1  0
  9 10  2  0
 10 11  1  0
 11 12  2  0
 12 13  1  0
 13 14  2  0
 11 15  1  0
 15 16  1  0
 16 17  1  0
 17 18  1  0
 18 19  2  0
 19 20  1  0
 20 21  2  0
 21 22  1  0
 22 23  2  0
 21 24  1  0
  9 25  1  0
  5  1  1  0
 14  6  1  0
 13  8  1  0
 23 18  1  0
M  END
$$$$
