
     RDKit          3D

 25 28  0  0  0  0  0  0  0  0999 V2000
    0.1714    1.6187    7.2763 C   0  0  0  0  0  0  0  0  0  0  0  0
    1.4359    1.0700    7.2420 C   0  0  0  0  0  0  0  0  0  0  0  0
    2.2085    1.7284    8.0650 O   0  0  0  0  0  0  0  0  0  0  0  0
    1.5630    2.6941    8.6650 C   0  0  0  0  0  0  0  0  0  0  0  0
    0.2573    2.6569    8.1876 C   0  0  0  0  0  0  0  0  0  0  0  0
    2.0892    3.6370    9.6456 C   0  0  0  0  0  0  0  0  0  0  0  0
    3.2593    3.5634   10.3009 N   0  0  0  0  0  0  0  0  0  0  0  0
    3.4217    4.5761   11.1108 N   0  0  0  0  0  0  0  0  0  0  0  0
    4.4100    4.9561   11.9750 C   0  0  0  0  0  0  0  0  0  0  0  0
    4.2467    6.0888   12.6724 N   0  0  0  0  0  0  0  0  0  0  0  0
    3.1686    6.8798   12.5769 C   0  0  0  0  0  0  0  0  0  0  0  0
    2.1999    6.5108   11.7323 N   0  0  0  0  0  0  0  0  0  0  0  0
    2.3415    5.3646   11.0122 C   0  0  0  0  0  0  0  0  0  0  0  0
    1.5215    4.7687   10.0980 N   0  0  0  0  0  0  0  0  0  0  0  0
    3.1061    8.0565   13.3661 N   0  0  0  0  0  0  0  0  0  0  0  0
    1.8390    8.5372   13.8297 C   0  0  0  0  0  0  0  0  0  0  0  0
    1.4140    7.9943   15.1471 C   0  0  0  0  0  0  0  0  0  0  0  0
    0.6449    8.9725   15.9485 C   0  0  0  0  0  0  0  0  0  0  0  0
    0.3381   10.2104   15.4371 C   0  0  0  0  0  0  0  0  0  0  0  0
   -0.3796   11.1476   16.1890 C   0  0  0  0  0  0  0  0  0  0  0  0
   -0.7796   10.8215   17.4505 C   0  0  0  0  0  0  0  0  0  0  0  0
   -0.4746    9.5759   17.9727 C   0  0  0  0  0  0  0  0  0  0  0  0
    0.2223    8.6612   17.2476 C   0  0  0  0  0  0  0  0  0  0  0  0
   -1.4925   11.7261   18.2237 O   0  0  0  0  0  0  0  0  0  0  0  0
    5.5442    4.1168   12.0704 N   0  0  0  0  0  0  0  0  0  0  0  0
  1  2  2  0
  2  3  1  0
  3  4  1  0
  4  5  2  0
  4  6  1  0
  6  7  2  0
  7  8  1  0
  8  9  1  0
  9 10  2  0
 10 11  1  0
 11 12  2  0
 12 13  1  0
 13 14  2  0
 11 15  1  0
 15 16  1  0
 16 17  1  0
 17 18  1  0
 18 19  2  0
 19 20  1  0
 20 21  2  0
 21 22  1  0
 22 23  2  0
 21 24  1  0
  9 25  1  0
  5  1  1  0
 14  6  1  0
 13  8  1  0
 23 18  1  0
M  END
$$$$
