
     RDKit          3D

 25 28  0  0  0  0  0  0  0  0999 V2000
    1.5501    0.3942    6.4454 C   0  0  0  0  0  0  0  0  0  0  0  0
    2.8428    0.1483    6.8572 C   0  0  0  0  0  0  0  0  0  0  0  0
    3.1661    1.0108    7.7841 O   0  0  0  0  0  0  0  0  0  0  0  0
    2.1842    1.8353    8.0400 C   0  0  0  0  0  0  0  0  0  0  0  0
    1.1329    1.4738    7.2043 C   0  0  0  0  0  0  0  0  0  0  0  0
    2.1722    2.9268    9.0074 C   0  0  0  0  0  0  0  0  0  0  0  0
    3.0650    3.1612    9.9831 N   0  0  0  0  0  0  0  0  0  0  0  0
    2.7554    4.2272   10.6725 N   0  0  0  0  0  0  0  0  0  0  0  0
    3.3222    4.8720   11.7362 C   0  0  0  0  0  0  0  0  0  0  0  0
    2.7219    5.9734   12.2079 N   0  0  0  0  0  0  0  0  0  0  0  0
    1.5929    6.4882   11.7008 C   0  0  0  0  0  0  0  0  0  0  0  0
    1.0358    5.8598   10.6602 N   0  0  0  0  0  0  0  0  0  0  0  0
    1.6258    4.7390   10.1622 C   0  0  0  0  0  0  0  0  0  0  0  0
    1.2746    3.9205    9.1278 N   0  0  0  0  0  0  0  0  0  0  0  0
    1.0482    7.6606   12.2840 N   0  0  0  0  0  0  0  0  0  0  0  0
    1.7312    8.3007   13.3682 C   0  0  0  0  0  0  0  0  0  0  0  0
    1.6129    7.6011   14.6749 C   0  0  0  0  0  0  0  0  0  0  0  0
    2.6664    7.9993   15.6352 C   0  0  0  0  0  0  0  0  0  0  0  0
    3.0884    7.1304   16.6125 C   0  0  0  0  0  0  0  0  0  0  0  0
    4.0764    7.4990   17.5326 C   0  0  0  0  0  0  0  0  0  0  0  0
    4.6271    8.7433   17.4534 C   0  0  0  0  0  0  0  0  0  0  0  0
    4.2074    9.6244   16.4712 C   0  0  0  0  0  0  0  0  0  0  0  0
    3.2481    9.2725   15.5746 C   0  0  0  0  0  0  0  0  0  0  0  0
    5.6086    9.1418   18.3491 O   0  0  0  0  0  0  0  0  0  0  0  0
    4.5131    4.3232   12.2657 N   0  0  0  0  0  0  0  0  0  0  0  0
  1  2  2  0
  2  3  1  0
  3  4  1  0
  4  5  2  0
  4  6  1  0
  6  7  2  0
  7  8  1  0
  8  9  1  0
  9 10  2  0
 10 11  1  0
 11 12  2  0
 12 13  1  0
 13 14  2  0
 11 15  1  0
 15 16  1  0
 16 17  1  0
 17 18  1  0
 18 19  2  0
 19 20  1  0
 20 21  2  0
 21 22  1  0
 22 23  2  0
 21 24  1  0
  9 25  1  0
  5  1  1  0
 14  6  1  0
 13  8  1  0
 23 18  1  0
M  END
$$$$
