
     RDKit          3D

 25 28  0  0  0  0  0  0  0  0999 V2000
    1.5340    0.0367    6.7857 C   0  0  0  0  0  0  0  0  0  0  0  0
    2.8064   -0.1840    7.2691 C   0  0  0  0  0  0  0  0  0  0  0  0
    3.0688    0.6982    8.1966 O   0  0  0  0  0  0  0  0  0  0  0  0
    2.0639    1.5129    8.3863 C   0  0  0  0  0  0  0  0  0  0  0  0
    1.0630    1.1227    7.5030 C   0  0  0  0  0  0  0  0  0  0  0  0
    1.9864    2.6200    9.3327 C   0  0  0  0  0  0  0  0  0  0  0  0
    2.8258    2.8856   10.3470 N   0  0  0  0  0  0  0  0  0  0  0  0
    2.4654    3.9576   11.0016 N   0  0  0  0  0  0  0  0  0  0  0  0
    2.9683    4.6295   12.0805 C   0  0  0  0  0  0  0  0  0  0  0  0
    2.3278    5.7283   12.5027 N   0  0  0  0  0  0  0  0  0  0  0  0
    1.2172    6.2155   11.9315 C   0  0  0  0  0  0  0  0  0  0  0  0
    0.7226    5.5606   10.8758 N   0  0  0  0  0  0  0  0  0  0  0  0
    1.3545    4.4417   10.4272 C   0  0  0  0  0  0  0  0  0  0  0  0
    1.0682    3.6003    9.3912 N   0  0  0  0  0  0  0  0  0  0  0  0
    0.6256    7.3882   12.4665 N   0  0  0  0  0  0  0  0  0  0  0  0
    1.3072    8.1291   13.4853 C   0  0  0  0  0  0  0  0  0  0  0  0
    1.1645    7.5732   14.8570 C   0  0  0  0  0  0  0  0  0  0  0  0
    2.2355    8.0258   15.7727 C   0  0  0  0  0  0  0  0  0  0  0  0
    2.2556    7.6162   17.0842 C   0  0  0  0  0  0  0  0  0  0  0  0
    3.2572    8.0456   17.9623 C   0  0  0  0  0  0  0  0  0  0  0  0
    4.2280    8.8851   17.5035 C   0  0  0  0  0  0  0  0  0  0  0  0
    4.2148    9.3021   16.1832 C   0  0  0  0  0  0  0  0  0  0  0  0
    3.2447    8.8887   15.3252 C   0  0  0  0  0  0  0  0  0  0  0  0
    5.2358    9.3304   18.3464 O   0  0  0  0  0  0  0  0  0  0  0  0
    4.1400    4.1097   12.6777 N   0  0  0  0  0  0  0  0  0  0  0  0
  1  2  2  0
  2  3  1  0
  3  4  1  0
  4  5  2  0
  4  6  1  0
  6  7  2  0
  7  8  1  0
  8  9  1  0
  9 10  2  0
 10 11  1  0
 11 12  2  0
 12 13  1  0
 13 14  2  0
 11 15  1  0
 15 16  1  0
 16 17  1  0
 17 18  1  0
 18 19  2  0
 19 20  1  0
 20 21  2  0
 21 22  1  0
 22 23  2  0
 21 24  1  0
  9 25  1  0
  5  1  1  0
 14  6  1  0
 13  8  1  0
 23 18  1  0
M  END
$$$$
