
     RDKit          3D

 25 28  0  0  0  0  0  0  0  0999 V2000
    3.5175   -0.6082    8.4612 C   0  0  0  0  0  0  0  0  0  0  0  0
    2.6164   -0.5520    7.4190 C   0  0  0  0  0  0  0  0  0  0  0  0
    1.9466    0.5675    7.4948 O   0  0  0  0  0  0  0  0  0  0  0  0
    2.3241    1.2877    8.5186 C   0  0  0  0  0  0  0  0  0  0  0  0
    3.3271    0.5702    9.1617 C   0  0  0  0  0  0  0  0  0  0  0  0
    1.8085    2.5902    8.9249 C   0  0  0  0  0  0  0  0  0  0  0  0
    0.7978    3.2768    8.3673 N   0  0  0  0  0  0  0  0  0  0  0  0
    0.5935    4.4136    8.9787 N   0  0  0  0  0  0  0  0  0  0  0  0
   -0.2879    5.4438    8.8054 C   0  0  0  0  0  0  0  0  0  0  0  0
   -0.2171    6.4907    9.6390 N   0  0  0  0  0  0  0  0  0  0  0  0
    0.6688    6.5944   10.6396 C   0  0  0  0  0  0  0  0  0  0  0  0
    1.5325    5.5883   10.8119 N   0  0  0  0  0  0  0  0  0  0  0  0
    1.4814    4.5133    9.9786 C   0  0  0  0  0  0  0  0  0  0  0  0
    2.2302    3.3730    9.9334 N   0  0  0  0  0  0  0  0  0  0  0  0
    0.6494    7.7518   11.4590 N   0  0  0  0  0  0  0  0  0  0  0  0
    1.5341    7.8452   12.5816 C   0  0  0  0  0  0  0  0  0  0  0  0
    0.8605    7.8085   13.9068 C   0  0  0  0  0  0  0  0  0  0  0  0
    1.8170    7.8263   15.0361 C   0  0  0  0  0  0  0  0  0  0  0  0
    3.1719    7.8117   14.8072 C   0  0  0  0  0  0  0  0  0  0  0  0
    4.0860    7.8178   15.8668 C   0  0  0  0  0  0  0  0  0  0  0  0
    3.6190    7.8391   17.1471 C   0  0  0  0  0  0  0  0  0  0  0  0
    2.2552    7.8542   17.3860 C   0  0  0  0  0  0  0  0  0  0  0  0
    1.3621    7.8482   16.3611 C   0  0  0  0  0  0  0  0  0  0  0  0
    4.4969    7.8457   18.2213 O   0  0  0  0  0  0  0  0  0  0  0  0
   -1.2194    5.3273    7.7478 N   0  0  0  0  0  0  0  0  0  0  0  0
  1  2  2  0
  2  3  1  0
  3  4  1  0
  4  5  2  0
  4  6  1  0
  6  7  2  0
  7  8  1  0
  8  9  1  0
  9 10  2  0
 10 11  1  0
 11 12  2  0
 12 13  1  0
 13 14  2  0
 11 15  1  0
 15 16  1  0
 16 17  1  0
 17 18  1  0
 18 19  2  0
 19 20  1  0
 20 21  2  0
 21 22  1  0
 22 23  2  0
 21 24  1  0
  9 25  1  0
  5  1  1  0
 14  6  1  0
 13  8  1  0
 23 18  1  0
M  END
$$$$
