
     RDKit          3D

 25 28  0  0  0  0  0  0  0  0999 V2000
    1.5867    0.4977    6.2208 C   0  0  0  0  0  0  0  0  0  0  0  0
    2.7135    0.0484    6.8763 C   0  0  0  0  0  0  0  0  0  0  0  0
    2.9089    0.7822    7.9397 O   0  0  0  0  0  0  0  0  0  0  0  0
    1.9934    1.7075    8.0627 C   0  0  0  0  0  0  0  0  0  0  0  0
    1.1295    1.5587    6.9830 C   0  0  0  0  0  0  0  0  0  0  0  0
    1.8811    2.7092    9.1170 C   0  0  0  0  0  0  0  0  0  0  0  0
    2.6135    2.7969   10.2394 N   0  0  0  0  0  0  0  0  0  0  0  0
    2.2522    3.8176   10.9711 N   0  0  0  0  0  0  0  0  0  0  0  0
    2.6707    4.3277   12.1681 C   0  0  0  0  0  0  0  0  0  0  0  0
    2.0605    5.4221   12.6433 N   0  0  0  0  0  0  0  0  0  0  0  0
    1.0585    6.0544   12.0163 C   0  0  0  0  0  0  0  0  0  0  0  0
    0.6467    5.5580   10.8450 N   0  0  0  0  0  0  0  0  0  0  0  0
    1.2500    4.4472   10.3405 C   0  0  0  0  0  0  0  0  0  0  0  0
    1.0298    3.7474    9.1895 N   0  0  0  0  0  0  0  0  0  0  0  0
    0.4887    7.2060   12.6166 N   0  0  0  0  0  0  0  0  0  0  0  0
    1.0378    7.7199   13.8356 C   0  0  0  0  0  0  0  0  0  0  0  0
    2.4080    8.2835   13.7095 C   0  0  0  0  0  0  0  0  0  0  0  0
    3.1692    8.2280   14.9775 C   0  0  0  0  0  0  0  0  0  0  0  0
    4.5398    8.1310   14.9685 C   0  0  0  0  0  0  0  0  0  0  0  0
    5.2698    8.0673   16.1608 C   0  0  0  0  0  0  0  0  0  0  0  0
    4.6045    8.1028   17.3499 C   0  0  0  0  0  0  0  0  0  0  0  0
    3.2235    8.2008   17.3674 C   0  0  0  0  0  0  0  0  0  0  0  0
    2.5086    8.2629   16.2127 C   0  0  0  0  0  0  0  0  0  0  0  0
    5.2964    8.0417   18.5508 O   0  0  0  0  0  0  0  0  0  0  0  0
    3.7281    3.6554   12.8237 N   0  0  0  0  0  0  0  0  0  0  0  0
  1  2  2  0
  2  3  1  0
  3  4  1  0
  4  5  2  0
  4  6  1  0
  6  7  2  0
  7  8  1  0
  8  9  1  0
  9 10  2  0
 10 11  1  0
 11 12  2  0
 12 13  1  0
 13 14  2  0
 11 15  1  0
 15 16  1  0
 16 17  1  0
 17 18  1  0
 18 19  2  0
 19 20  1  0
 20 21  2  0
 21 22  1  0
 22 23  2  0
 21 24  1  0
  9 25  1  0
  5  1  1  0
 14  6  1  0
 13  8  1  0
 23 18  1  0
M  END
$$$$
