
     RDKit          3D

 25 28  0  0  0  0  0  0  0  0999 V2000
    1.8455    0.3576    6.1253 C   0  0  0  0  0  0  0  0  0  0  0  0
    3.0583    0.0019    6.6767 C   0  0  0  0  0  0  0  0  0  0  0  0
    3.2941    0.7615    7.7134 O   0  0  0  0  0  0  0  0  0  0  0  0
    2.3265    1.6174    7.9151 C   0  0  0  0  0  0  0  0  0  0  0  0
    1.3812    1.3910    6.9204 C   0  0  0  0  0  0  0  0  0  0  0  0
    2.2358    2.6210    8.9696 C   0  0  0  0  0  0  0  0  0  0  0  0
    3.0172    2.7347   10.0561 N   0  0  0  0  0  0  0  0  0  0  0  0
    2.6623    3.7487   10.8000 N   0  0  0  0  0  0  0  0  0  0  0  0
    3.1220    4.2764   11.9741 C   0  0  0  0  0  0  0  0  0  0  0  0
    2.5044    5.3559   12.4732 N   0  0  0  0  0  0  0  0  0  0  0  0
    1.4568    5.9569   11.8916 C   0  0  0  0  0  0  0  0  0  0  0  0
    1.0046    5.4432   10.7429 N   0  0  0  0  0  0  0  0  0  0  0  0
    1.6144    4.3470   10.2148 C   0  0  0  0  0  0  0  0  0  0  0  0
    1.3601    3.6354    9.0781 N   0  0  0  0  0  0  0  0  0  0  0  0
    0.8838    7.0953   12.5136 N   0  0  0  0  0  0  0  0  0  0  0  0
    1.4364    7.5922   13.7381 C   0  0  0  0  0  0  0  0  0  0  0  0
    2.9044    7.8260   13.7062 C   0  0  0  0  0  0  0  0  0  0  0  0
    3.4454    8.2507   15.0167 C   0  0  0  0  0  0  0  0  0  0  0  0
    2.8443    9.2604   15.7289 C   0  0  0  0  0  0  0  0  0  0  0  0
    3.3525    9.6778   16.9643 C   0  0  0  0  0  0  0  0  0  0  0  0
    4.4638    9.0684   17.4658 C   0  0  0  0  0  0  0  0  0  0  0  0
    5.0750    8.0500   16.7542 C   0  0  0  0  0  0  0  0  0  0  0  0
    4.5864    7.6400   15.5537 C   0  0  0  0  0  0  0  0  0  0  0  0
    4.9944    9.4569   18.6873 O   0  0  0  0  0  0  0  0  0  0  0  0
    4.2274    3.6371   12.5817 N   0  0  0  0  0  0  0  0  0  0  0  0
  1  2  2  0
  2  3  1  0
  3  4  1  0
  4  5  2  0
  4  6  1  0
  6  7  2  0
  7  8  1  0
  8  9  1  0
  9 10  2  0
 10 11  1  0
 11 12  2  0
 12 13  1  0
 13 14  2  0
 11 15  1  0
 15 16  1  0
 16 17  1  0
 17 18  1  0
 18 19  2  0
 19 20  1  0
 20 21  2  0
 21 22  1  0
 22 23  2  0
 21 24  1  0
  9 25  1  0
  5  1  1  0
 14  6  1  0
 13  8  1  0
 23 18  1  0
M  END
$$$$
