
     RDKit          3D

 25 28  0  0  0  0  0  0  0  0999 V2000
    1.4910    0.7590    6.0594 C   0  0  0  0  0  0  0  0  0  0  0  0
    2.7385    0.3502    6.4812 C   0  0  0  0  0  0  0  0  0  0  0  0
    3.1176    1.1016    7.4808 O   0  0  0  0  0  0  0  0  0  0  0  0
    2.2165    2.0012    7.7775 C   0  0  0  0  0  0  0  0  0  0  0  0
    1.1611    1.8149    6.8911 C   0  0  0  0  0  0  0  0  0  0  0  0
    2.2842    3.0113    8.8276 C   0  0  0  0  0  0  0  0  0  0  0  0
    3.1819    3.0932    9.8232 N   0  0  0  0  0  0  0  0  0  0  0  0
    2.9542    4.1246   10.5927 N   0  0  0  0  0  0  0  0  0  0  0  0
    3.5603    4.6348   11.7066 C   0  0  0  0  0  0  0  0  0  0  0  0
    3.0484    5.7426   12.2602 N   0  0  0  0  0  0  0  0  0  0  0  0
    1.9722    6.3883   11.7893 C   0  0  0  0  0  0  0  0  0  0  0  0
    1.3770    5.8919   10.6997 N   0  0  0  0  0  0  0  0  0  0  0  0
    1.8773    4.7676   10.1182 C   0  0  0  0  0  0  0  0  0  0  0  0
    1.4712    4.0645    9.0210 N   0  0  0  0  0  0  0  0  0  0  0  0
    1.5204    7.5534   12.4599 N   0  0  0  0  0  0  0  0  0  0  0  0
    2.2179    8.0243   13.6189 C   0  0  0  0  0  0  0  0  0  0  0  0
    1.8380    7.3493   14.8881 C   0  0  0  0  0  0  0  0  0  0  0  0
    2.6966    7.7454   16.0267 C   0  0  0  0  0  0  0  0  0  0  0  0
    2.1412    8.2039   17.1970 C   0  0  0  0  0  0  0  0  0  0  0  0
    2.9429    8.5911   18.2767 C   0  0  0  0  0  0  0  0  0  0  0  0
    4.2985    8.5098   18.1606 C   0  0  0  0  0  0  0  0  0  0  0  0
    4.8658    8.0485   16.9848 C   0  0  0  0  0  0  0  0  0  0  0  0
    4.0926    7.6710   15.9323 C   0  0  0  0  0  0  0  0  0  0  0  0
    5.1232    8.8853   19.2111 O   0  0  0  0  0  0  0  0  0  0  0  0
    4.6949    3.9482   12.1975 N   0  0  0  0  0  0  0  0  0  0  0  0
  1  2  2  0
  2  3  1  0
  3  4  1  0
  4  5  2  0
  4  6  1  0
  6  7  2  0
  7  8  1  0
  8  9  1  0
  9 10  2  0
 10 11  1  0
 11 12  2  0
 12 13  1  0
 13 14  2  0
 11 15  1  0
 15 16  1  0
 16 17  1  0
 17 18  1  0
 18 19  2  0
 19 20  1  0
 20 21  2  0
 21 22  1  0
 22 23  2  0
 21 24  1  0
  9 25  1  0
  5  1  1  0
 14  6  1  0
 13  8  1  0
 23 18  1  0
M  END
$$$$
