
     RDKit          3D

 25 28  0  0  0  0  0  0  0  0999 V2000
    1.8040    0.5459    6.1740 C   0  0  0  0  0  0  0  0  0  0  0  0
    2.9836    0.1714    6.7819 C   0  0  0  0  0  0  0  0  0  0  0  0
    3.1770    0.9208    7.8347 O   0  0  0  0  0  0  0  0  0  0  0  0
    2.2110    1.7872    7.9948 C   0  0  0  0  0  0  0  0  0  0  0  0
    1.3134    1.5794    6.9530 C   0  0  0  0  0  0  0  0  0  0  0  0
    2.0804    2.7846    9.0511 C   0  0  0  0  0  0  0  0  0  0  0  0
    2.8182    2.8900   10.1683 N   0  0  0  0  0  0  0  0  0  0  0  0
    2.4359    3.9003   10.9038 N   0  0  0  0  0  0  0  0  0  0  0  0
    2.8496    4.4197   12.0985 C   0  0  0  0  0  0  0  0  0  0  0  0
    2.2147    5.4975   12.5794 N   0  0  0  0  0  0  0  0  0  0  0  0
    1.1922    6.1043   11.9603 C   0  0  0  0  0  0  0  0  0  0  0  0
    0.7850    5.5986   10.7914 N   0  0  0  0  0  0  0  0  0  0  0  0
    1.4133    4.5043   10.2812 C   0  0  0  0  0  0  0  0  0  0  0  0
    1.2030    3.8002    9.1309 N   0  0  0  0  0  0  0  0  0  0  0  0
    0.5971    7.2401   12.5661 N   0  0  0  0  0  0  0  0  0  0  0  0
    1.1475    7.7728   13.7765 C   0  0  0  0  0  0  0  0  0  0  0  0
    2.5603    8.2238   13.6694 C   0  0  0  0  0  0  0  0  0  0  0  0
    3.1716    8.5096   14.9866 C   0  0  0  0  0  0  0  0  0  0  0  0
    4.4880    8.8924   15.0800 C   0  0  0  0  0  0  0  0  0  0  0  0
    5.0801    9.1554   16.3205 C   0  0  0  0  0  0  0  0  0  0  0  0
    4.3332    9.0285   17.4535 C   0  0  0  0  0  0  0  0  0  0  0  0
    3.0059    8.6435   17.3677 C   0  0  0  0  0  0  0  0  0  0  0  0
    2.4249    8.3865   16.1658 C   0  0  0  0  0  0  0  0  0  0  0  0
    4.8879    9.2812   18.6997 O   0  0  0  0  0  0  0  0  0  0  0  0
    3.9288    3.7744   12.7456 N   0  0  0  0  0  0  0  0  0  0  0  0
  1  2  2  0
  2  3  1  0
  3  4  1  0
  4  5  2  0
  4  6  1  0
  6  7  2  0
  7  8  1  0
  8  9  1  0
  9 10  2  0
 10 11  1  0
 11 12  2  0
 12 13  1  0
 13 14  2  0
 11 15  1  0
 15 16  1  0
 16 17  1  0
 17 18  1  0
 18 19  2  0
 19 20  1  0
 20 21  2  0
 21 22  1  0
 22 23  2  0
 21 24  1  0
  9 25  1  0
  5  1  1  0
 14  6  1  0
 13  8  1  0
 23 18  1  0
M  END
$$$$
