
     RDKit          3D

 25 28  0  0  0  0  0  0  0  0999 V2000
    1.3830    0.5710    6.3838 C   0  0  0  0  0  0  0  0  0  0  0  0
    2.6510    0.2553    6.8240 C   0  0  0  0  0  0  0  0  0  0  0  0
    2.9896    1.0829    7.7769 O   0  0  0  0  0  0  0  0  0  0  0  0
    2.0414    1.9483    8.0244 C   0  0  0  0  0  0  0  0  0  0  0  0
    0.9971    1.6542    7.1542 C   0  0  0  0  0  0  0  0  0  0  0  0
    2.0550    3.0198    9.0139 C   0  0  0  0  0  0  0  0  0  0  0  0
    2.9400    3.2002   10.0079 N   0  0  0  0  0  0  0  0  0  0  0  0
    2.6599    4.2633   10.7144 N   0  0  0  0  0  0  0  0  0  0  0  0
    3.2333    4.8645   11.7998 C   0  0  0  0  0  0  0  0  0  0  0  0
    2.6677    5.9783   12.2849 N   0  0  0  0  0  0  0  0  0  0  0  0
    1.5674    6.5460   11.7710 C   0  0  0  0  0  0  0  0  0  0  0  0
    1.0040    5.9604   10.7091 N   0  0  0  0  0  0  0  0  0  0  0  0
    1.5591    4.8280   10.1972 C   0  0  0  0  0  0  0  0  0  0  0  0
    1.1939    4.0446    9.1408 N   0  0  0  0  0  0  0  0  0  0  0  0
    1.0582    7.7265   12.3697 N   0  0  0  0  0  0  0  0  0  0  0  0
    1.8010    8.3767   13.4076 C   0  0  0  0  0  0  0  0  0  0  0  0
    1.4339    7.9602   14.7870 C   0  0  0  0  0  0  0  0  0  0  0  0
    2.5611    8.0753   15.7391 C   0  0  0  0  0  0  0  0  0  0  0  0
    3.0264    6.9707   16.4110 C   0  0  0  0  0  0  0  0  0  0  0  0
    4.0848    7.0687   17.3214 C   0  0  0  0  0  0  0  0  0  0  0  0
    4.6613    8.2839   17.5418 C   0  0  0  0  0  0  0  0  0  0  0  0
    4.1984    9.4017   16.8683 C   0  0  0  0  0  0  0  0  0  0  0  0
    3.1706    9.3132   15.9829 C   0  0  0  0  0  0  0  0  0  0  0  0
    5.7124    8.4174   18.4373 O   0  0  0  0  0  0  0  0  0  0  0  0
    4.3937    4.2599   12.3364 N   0  0  0  0  0  0  0  0  0  0  0  0
  1  2  2  0
  2  3  1  0
  3  4  1  0
  4  5  2  0
  4  6  1  0
  6  7  2  0
  7  8  1  0
  8  9  1  0
  9 10  2  0
 10 11  1  0
 11 12  2  0
 12 13  1  0
 13 14  2  0
 11 15  1  0
 15 16  1  0
 16 17  1  0
 17 18  1  0
 18 19  2  0
 19 20  1  0
 20 21  2  0
 21 22  1  0
 22 23  2  0
 21 24  1  0
  9 25  1  0
  5  1  1  0
 14  6  1  0
 13  8  1  0
 23 18  1  0
M  END
$$$$
