
     RDKit          3D

 25 28  0  0  0  0  0  0  0  0999 V2000
    1.9183    0.2952    6.1955 C   0  0  0  0  0  0  0  0  0  0  0  0
    3.1309   -0.0018    6.7810 C   0  0  0  0  0  0  0  0  0  0  0  0
    3.3065    0.7768    7.8156 O   0  0  0  0  0  0  0  0  0  0  0  0
    2.2975    1.5910    7.9840 C   0  0  0  0  0  0  0  0  0  0  0  0
    1.3889    1.3142    6.9681 C   0  0  0  0  0  0  0  0  0  0  0  0
    2.1359    2.5991    9.0257 C   0  0  0  0  0  0  0  0  0  0  0  0
    2.8647    2.7385   10.1452 N   0  0  0  0  0  0  0  0  0  0  0  0
    2.4528    3.7488   10.8646 N   0  0  0  0  0  0  0  0  0  0  0  0
    2.8467    4.2949   12.0541 C   0  0  0  0  0  0  0  0  0  0  0  0
    2.1821    5.3627   12.5167 N   0  0  0  0  0  0  0  0  0  0  0  0
    1.1480    5.9348   11.8841 C   0  0  0  0  0  0  0  0  0  0  0  0
    0.7602    5.4030   10.7202 N   0  0  0  0  0  0  0  0  0  0  0  0
    1.4187    4.3181   10.2285 C   0  0  0  0  0  0  0  0  0  0  0  0
    1.2327    3.5932    9.0869 N   0  0  0  0  0  0  0  0  0  0  0  0
    0.5210    7.0634   12.4710 N   0  0  0  0  0  0  0  0  0  0  0  0
    1.0098    7.5851   13.7122 C   0  0  0  0  0  0  0  0  0  0  0  0
    2.2689    8.3684   13.6027 C   0  0  0  0  0  0  0  0  0  0  0  0
    2.9841    8.4861   14.8931 C   0  0  0  0  0  0  0  0  0  0  0  0
    2.3623    9.0282   15.9920 C   0  0  0  0  0  0  0  0  0  0  0  0
    3.0315    9.1543   17.2147 C   0  0  0  0  0  0  0  0  0  0  0  0
    4.3231    8.7299   17.3122 C   0  0  0  0  0  0  0  0  0  0  0  0
    4.9565    8.1823   16.2094 C   0  0  0  0  0  0  0  0  0  0  0  0
    4.3121    8.0572   15.0189 C   0  0  0  0  0  0  0  0  0  0  0  0
    5.0165    8.8399   18.5087 O   0  0  0  0  0  0  0  0  0  0  0  0
    3.9382    3.6861   12.7157 N   0  0  0  0  0  0  0  0  0  0  0  0
  1  2  2  0
  2  3  1  0
  3  4  1  0
  4  5  2  0
  4  6  1  0
  6  7  2  0
  7  8  1  0
  8  9  1  0
  9 10  2  0
 10 11  1  0
 11 12  2  0
 12 13  1  0
 13 14  2  0
 11 15  1  0
 15 16  1  0
 16 17  1  0
 17 18  1  0
 18 19  2  0
 19 20  1  0
 20 21  2  0
 21 22  1  0
 22 23  2  0
 21 24  1  0
  9 25  1  0
  5  1  1  0
 14  6  1  0
 13  8  1  0
 23 18  1  0
M  END
$$$$
