
     RDKit          3D

 25 28  0  0  0  0  0  0  0  0999 V2000
    1.7523    0.1292    6.5963 C   0  0  0  0  0  0  0  0  0  0  0  0
    3.0129   -0.1181    7.0975 C   0  0  0  0  0  0  0  0  0  0  0  0
    3.2889    0.7710    8.0144 O   0  0  0  0  0  0  0  0  0  0  0  0
    2.3044    1.6153    8.1802 C   0  0  0  0  0  0  0  0  0  0  0  0
    1.3031    1.2385    7.2915 C   0  0  0  0  0  0  0  0  0  0  0  0
    2.2465    2.7386    9.1087 C   0  0  0  0  0  0  0  0  0  0  0  0
    3.0972    3.0120   10.1115 N   0  0  0  0  0  0  0  0  0  0  0  0
    2.7536    4.0985   10.7511 N   0  0  0  0  0  0  0  0  0  0  0  0
    3.2725    4.7827   11.8145 C   0  0  0  0  0  0  0  0  0  0  0  0
    2.6472    5.8951   12.2237 N   0  0  0  0  0  0  0  0  0  0  0  0
    1.5371    6.3846   11.6536 C   0  0  0  0  0  0  0  0  0  0  0  0
    1.0269    5.7177   10.6131 N   0  0  0  0  0  0  0  0  0  0  0  0
    1.6431    4.5848   10.1779 C   0  0  0  0  0  0  0  0  0  0  0  0
    1.3392    3.7296    9.1584 N   0  0  0  0  0  0  0  0  0  0  0  0
    0.9624    7.5722   12.1739 N   0  0  0  0  0  0  0  0  0  0  0  0
    1.6250    8.2828   13.2264 C   0  0  0  0  0  0  0  0  0  0  0  0
    1.3072    7.7999   14.5964 C   0  0  0  0  0  0  0  0  0  0  0  0
    2.3362    8.1790   15.5903 C   0  0  0  0  0  0  0  0  0  0  0  0
    3.2801    7.2699   16.0034 C   0  0  0  0  0  0  0  0  0  0  0  0
    4.2517    7.6135   16.9502 C   0  0  0  0  0  0  0  0  0  0  0  0
    4.2578    8.8740   17.4688 C   0  0  0  0  0  0  0  0  0  0  0  0
    3.3102    9.7959   17.0573 C   0  0  0  0  0  0  0  0  0  0  0  0
    2.3637    9.4684   16.1381 C   0  0  0  0  0  0  0  0  0  0  0  0
    5.2064    9.2485   18.4092 O   0  0  0  0  0  0  0  0  0  0  0  0
    4.4437    4.2603   12.4107 N   0  0  0  0  0  0  0  0  0  0  0  0
  1  2  2  0
  2  3  1  0
  3  4  1  0
  4  5  2  0
  4  6  1  0
  6  7  2  0
  7  8  1  0
  8  9  1  0
  9 10  2  0
 10 11  1  0
 11 12  2  0
 12 13  1  0
 13 14  2  0
 11 15  1  0
 15 16  1  0
 16 17  1  0
 17 18  1  0
 18 19  2  0
 19 20  1  0
 20 21  2  0
 21 22  1  0
 22 23  2  0
 21 24  1  0
  9 25  1  0
  5  1  1  0
 14  6  1  0
 13  8  1  0
 23 18  1  0
M  END
$$$$
