
     RDKit          3D

 25 28  0  0  0  0  0  0  0  0999 V2000
    4.1924    0.0072    8.3646 C   0  0  0  0  0  0  0  0  0  0  0  0
    3.6489    0.1770    7.1088 C   0  0  0  0  0  0  0  0  0  0  0  0
    2.8158    1.1833    7.1376 O   0  0  0  0  0  0  0  0  0  0  0  0
    2.7474    1.7196    8.3281 C   0  0  0  0  0  0  0  0  0  0  0  0
    3.6131    0.9957    9.1410 C   0  0  0  0  0  0  0  0  0  0  0  0
    1.9305    2.8541    8.7439 C   0  0  0  0  0  0  0  0  0  0  0  0
    1.0659    3.5551    7.9921 N   0  0  0  0  0  0  0  0  0  0  0  0
    0.4973    4.5111    8.6780 N   0  0  0  0  0  0  0  0  0  0  0  0
   -0.4269    5.4744    8.3846 C   0  0  0  0  0  0  0  0  0  0  0  0
   -0.7985    6.3189    9.3566 N   0  0  0  0  0  0  0  0  0  0  0  0
   -0.3191    6.2802   10.6079 C   0  0  0  0  0  0  0  0  0  0  0  0
    0.5852    5.3390   10.8982 N   0  0  0  0  0  0  0  0  0  0  0  0
    0.9794    4.4690    9.9286 C   0  0  0  0  0  0  0  0  0  0  0  0
    1.8692    3.4343    9.9553 N   0  0  0  0  0  0  0  0  0  0  0  0
   -0.7873    7.2274   11.5539 N   0  0  0  0  0  0  0  0  0  0  0  0
   -0.2370    7.2457   12.8762 C   0  0  0  0  0  0  0  0  0  0  0  0
    0.7081    8.3631   13.1392 C   0  0  0  0  0  0  0  0  0  0  0  0
    1.9174    7.9294   13.8740 C   0  0  0  0  0  0  0  0  0  0  0  0
    2.7042    6.9121   13.3901 C   0  0  0  0  0  0  0  0  0  0  0  0
    3.8443    6.4862   14.0811 C   0  0  0  0  0  0  0  0  0  0  0  0
    4.1761    7.0949   15.2547 C   0  0  0  0  0  0  0  0  0  0  0  0
    3.3885    8.1210   15.7487 C   0  0  0  0  0  0  0  0  0  0  0  0
    2.2798    8.5392   15.0823 C   0  0  0  0  0  0  0  0  0  0  0  0
    5.2992    6.6981   15.9656 O   0  0  0  0  0  0  0  0  0  0  0  0
   -0.9281    5.5090    7.0627 N   0  0  0  0  0  0  0  0  0  0  0  0
  1  2  2  0
  2  3  1  0
  3  4  1  0
  4  5  2  0
  4  6  1  0
  6  7  2  0
  7  8  1  0
  8  9  1  0
  9 10  2  0
 10 11  1  0
 11 12  2  0
 12 13  1  0
 13 14  2  0
 11 15  1  0
 15 16  1  0
 16 17  1  0
 17 18  1  0
 18 19  2  0
 19 20  1  0
 20 21  2  0
 21 22  1  0
 22 23  2  0
 21 24  1  0
  9 25  1  0
  5  1  1  0
 14  6  1  0
 13  8  1  0
 23 18  1  0
M  END
$$$$
