
     RDKit          3D

 25 28  0  0  0  0  0  0  0  0999 V2000
    1.8553    0.2020    6.2838 C   0  0  0  0  0  0  0  0  0  0  0  0
    3.0420   -0.1554    6.8882 C   0  0  0  0  0  0  0  0  0  0  0  0
    3.2455    0.6207    7.9196 O   0  0  0  0  0  0  0  0  0  0  0  0
    2.2799    1.4896    8.0681 C   0  0  0  0  0  0  0  0  0  0  0  0
    1.3714    1.2543    7.0416 C   0  0  0  0  0  0  0  0  0  0  0  0
    2.1589    2.5132    9.1001 C   0  0  0  0  0  0  0  0  0  0  0  0
    2.8887    2.6302   10.2215 N   0  0  0  0  0  0  0  0  0  0  0  0
    2.5193    3.6642   10.9302 N   0  0  0  0  0  0  0  0  0  0  0  0
    2.9322    4.2030   12.1165 C   0  0  0  0  0  0  0  0  0  0  0  0
    2.3138    5.3034   12.5668 N   0  0  0  0  0  0  0  0  0  0  0  0
    1.3086    5.9150   11.9245 C   0  0  0  0  0  0  0  0  0  0  0  0
    0.9023    5.3905   10.7637 N   0  0  0  0  0  0  0  0  0  0  0  0
    1.5140    4.2730   10.2845 C   0  0  0  0  0  0  0  0  0  0  0  0
    1.3005    3.5469    9.1486 N   0  0  0  0  0  0  0  0  0  0  0  0
    0.7300    7.0756   12.4987 N   0  0  0  0  0  0  0  0  0  0  0  0
    1.2021    7.5566   13.7626 C   0  0  0  0  0  0  0  0  0  0  0  0
    2.3792    8.4615   13.6813 C   0  0  0  0  0  0  0  0  0  0  0  0
    3.0686    8.6224   14.9810 C   0  0  0  0  0  0  0  0  0  0  0  0
    2.7876    9.6928   15.7955 C   0  0  0  0  0  0  0  0  0  0  0  0
    3.4404    9.8614   17.0219 C   0  0  0  0  0  0  0  0  0  0  0  0
    4.3706    8.9443   17.4110 C   0  0  0  0  0  0  0  0  0  0  0  0
    4.6591    7.8628   16.5960 C   0  0  0  0  0  0  0  0  0  0  0  0
    4.0287    7.6934   15.4036 C   0  0  0  0  0  0  0  0  0  0  0  0
    5.0368    9.0804   18.6203 O   0  0  0  0  0  0  0  0  0  0  0  0
    3.9930    3.5523   12.7883 N   0  0  0  0  0  0  0  0  0  0  0  0
  1  2  2  0
  2  3  1  0
  3  4  1  0
  4  5  2  0
  4  6  1  0
  6  7  2  0
  7  8  1  0
  8  9  1  0
  9 10  2  0
 10 11  1  0
 11 12  2  0
 12 13  1  0
 13 14  2  0
 11 15  1  0
 15 16  1  0
 16 17  1  0
 17 18  1  0
 18 19  2  0
 19 20  1  0
 20 21  2  0
 21 22  1  0
 22 23  2  0
 21 24  1  0
  9 25  1  0
  5  1  1  0
 14  6  1  0
 13  8  1  0
 23 18  1  0
M  END
$$$$
