
     RDKit          3D

 25 28  0  0  0  0  0  0  0  0999 V2000
    2.9279   10.5441   16.0924 C   0  0  0  0  0  0  0  0  0  0  0  0
    3.9675    9.7190   16.4662 C   0  0  0  0  0  0  0  0  0  0  0  0
    3.9512    8.6476   15.7183 O   0  0  0  0  0  0  0  0  0  0  0  0
    2.9710    8.6772   14.8536 C   0  0  0  0  0  0  0  0  0  0  0  0
    2.2934    9.8740   15.0610 C   0  0  0  0  0  0  0  0  0  0  0  0
    2.6357    7.6652   13.8583 C   0  0  0  0  0  0  0  0  0  0  0  0
    3.2625    6.4976   13.6398 N   0  0  0  0  0  0  0  0  0  0  0  0
    2.7026    5.8251   12.6692 N   0  0  0  0  0  0  0  0  0  0  0  0
    2.9523    4.6182   12.0783 C   0  0  0  0  0  0  0  0  0  0  0  0
    2.1550    4.2212   11.0770 N   0  0  0  0  0  0  0  0  0  0  0  0
    1.1201    4.9362   10.6135 C   0  0  0  0  0  0  0  0  0  0  0  0
    0.8730    6.1173   11.1894 N   0  0  0  0  0  0  0  0  0  0  0  0
    1.6682    6.5435   12.2085 C   0  0  0  0  0  0  0  0  0  0  0  0
    1.6384    7.6848   12.9567 N   0  0  0  0  0  0  0  0  0  0  0  0
    0.3449    4.4133    9.5471 N   0  0  0  0  0  0  0  0  0  0  0  0
    0.6677    3.1327    8.9926 C   0  0  0  0  0  0  0  0  0  0  0  0
    0.1596    2.9083    7.6133 C   0  0  0  0  0  0  0  0  0  0  0  0
    0.8693    1.8150    6.9123 C   0  0  0  0  0  0  0  0  0  0  0  0
    0.5384    1.4792    5.6216 C   0  0  0  0  0  0  0  0  0  0  0  0
    1.1951    0.4405    4.9519 C   0  0  0  0  0  0  0  0  0  0  0  0
    2.1802   -0.2471    5.5958 C   0  0  0  0  0  0  0  0  0  0  0  0
    2.5196    0.0855    6.8963 C   0  0  0  0  0  0  0  0  0  0  0  0
    1.8854    1.0932    7.5524 C   0  0  0  0  0  0  0  0  0  0  0  0
    2.8519   -1.2824    4.9621 O   0  0  0  0  0  0  0  0  0  0  0  0
    4.0456    3.8697   12.5726 N   0  0  0  0  0  0  0  0  0  0  0  0
  1  2  2  0
  2  3  1  0
  3  4  1  0
  4  5  2  0
  4  6  1  0
  6  7  2  0
  7  8  1  0
  8  9  1  0
  9 10  2  0
 10 11  1  0
 11 12  2  0
 12 13  1  0
 13 14  2  0
 11 15  1  0
 15 16  1  0
 16 17  1  0
 17 18  1  0
 18 19  2  0
 19 20  1  0
 20 21  2  0
 21 22  1  0
 22 23  2  0
 21 24  1  0
  9 25  1  0
  5  1  1  0
 14  6  1  0
 13  8  1  0
 23 18  1  0
M  END
$$$$
