
     RDKit          3D

 25 28  0  0  0  0  0  0  0  0999 V2000
    2.8535    0.0648    6.8763 C   0  0  0  0  0  0  0  0  0  0  0  0
    1.6777    0.5595    6.3530 C   0  0  0  0  0  0  0  0  0  0  0  0
    1.2651    1.5523    7.0958 O   0  0  0  0  0  0  0  0  0  0  0  0
    2.0764    1.7764    8.0963 C   0  0  0  0  0  0  0  0  0  0  0  0
    3.1048    0.8459    7.9910 C   0  0  0  0  0  0  0  0  0  0  0  0
    1.9477    2.7963    9.1310 C   0  0  0  0  0  0  0  0  0  0  0  0
    0.9461    3.6775    9.2868 N   0  0  0  0  0  0  0  0  0  0  0  0
    1.1443    4.4533   10.3196 N   0  0  0  0  0  0  0  0  0  0  0  0
    0.4440    5.4802   10.8883 C   0  0  0  0  0  0  0  0  0  0  0  0
    0.9538    6.0743   11.9760 N   0  0  0  0  0  0  0  0  0  0  0  0
    2.1149    5.7245   12.5473 C   0  0  0  0  0  0  0  0  0  0  0  0
    2.8024    4.7203   11.9934 N   0  0  0  0  0  0  0  0  0  0  0  0
    2.3064    4.1002   10.8880 C   0  0  0  0  0  0  0  0  0  0  0  0
    2.7948    3.0690   10.1388 N   0  0  0  0  0  0  0  0  0  0  0  0
    2.5549    6.4267   13.6982 N   0  0  0  0  0  0  0  0  0  0  0  0
    1.7959    7.5381   14.1884 C   0  0  0  0  0  0  0  0  0  0  0  0
    2.3190    8.8712   13.7881 C   0  0  0  0  0  0  0  0  0  0  0  0
    1.3126    9.6916   13.0778 C   0  0  0  0  0  0  0  0  0  0  0  0
    0.0750    9.1763   12.7761 C   0  0  0  0  0  0  0  0  0  0  0  0
   -0.8813    9.9387   12.0958 C   0  0  0  0  0  0  0  0  0  0  0  0
   -0.5748   11.2150   11.7283 C   0  0  0  0  0  0  0  0  0  0  0  0
    0.6700   11.7415   12.0291 C   0  0  0  0  0  0  0  0  0  0  0  0
    1.6033   11.0061   12.6895 C   0  0  0  0  0  0  0  0  0  0  0  0
   -1.4987   11.9989   11.0528 O   0  0  0  0  0  0  0  0  0  0  0  0
   -0.7799    5.8436   10.2801 N   0  0  0  0  0  0  0  0  0  0  0  0
  1  2  2  0
  2  3  1  0
  3  4  1  0
  4  5  2  0
  4  6  1  0
  6  7  2  0
  7  8  1  0
  8  9  1  0
  9 10  2  0
 10 11  1  0
 11 12  2  0
 12 13  1  0
 13 14  2  0
 11 15  1  0
 15 16  1  0
 16 17  1  0
 17 18  1  0
 18 19  2  0
 19 20  1  0
 20 21  2  0
 21 22  1  0
 22 23  2  0
 21 24  1  0
  9 25  1  0
  5  1  1  0
 14  6  1  0
 13  8  1  0
 23 18  1  0
M  END
$$$$
