
     RDKit          3D

 25 28  0  0  0  0  0  0  0  0999 V2000
    1.9562    0.3109    6.4951 C   0  0  0  0  0  0  0  0  0  0  0  0
    3.1569    0.0289    7.1116 C   0  0  0  0  0  0  0  0  0  0  0  0
    3.3090    0.8284    8.1340 O   0  0  0  0  0  0  0  0  0  0  0  0
    2.2949    1.6430    8.2650 C   0  0  0  0  0  0  0  0  0  0  0  0
    1.4084    1.3436    7.2360 C   0  0  0  0  0  0  0  0  0  0  0  0
    2.1091    2.6711    9.2828 C   0  0  0  0  0  0  0  0  0  0  0  0
    2.8308    2.8508   10.4012 N   0  0  0  0  0  0  0  0  0  0  0  0
    2.3960    3.8687   11.0959 N   0  0  0  0  0  0  0  0  0  0  0  0
    2.7744    4.4497   12.2738 C   0  0  0  0  0  0  0  0  0  0  0  0
    2.0867    5.5141   12.7097 N   0  0  0  0  0  0  0  0  0  0  0  0
    1.0437    6.0506   12.0607 C   0  0  0  0  0  0  0  0  0  0  0  0
    0.6709    5.4846   10.9081 N   0  0  0  0  0  0  0  0  0  0  0  0
    1.3530    4.4023   10.4435 C   0  0  0  0  0  0  0  0  0  0  0  0
    1.1858    3.6479    9.3183 N   0  0  0  0  0  0  0  0  0  0  0  0
    0.3919    7.1794   12.6196 N   0  0  0  0  0  0  0  0  0  0  0  0
    0.8542    7.7280   13.8593 C   0  0  0  0  0  0  0  0  0  0  0  0
    2.0549    8.5973   13.7434 C   0  0  0  0  0  0  0  0  0  0  0  0
    2.5641    9.0490   15.0577 C   0  0  0  0  0  0  0  0  0  0  0  0
    2.0235   10.1495   15.6780 C   0  0  0  0  0  0  0  0  0  0  0  0
    2.5033   10.5923   16.9158 C   0  0  0  0  0  0  0  0  0  0  0  0
    3.5251    9.9162   17.5130 C   0  0  0  0  0  0  0  0  0  0  0  0
    4.0749    8.8061   16.8944 C   0  0  0  0  0  0  0  0  0  0  0  0
    3.6135    8.3709   15.6919 C   0  0  0  0  0  0  0  0  0  0  0  0
    4.0252   10.3274   18.7398 O   0  0  0  0  0  0  0  0  0  0  0  0
    3.8755    3.8783   12.9527 N   0  0  0  0  0  0  0  0  0  0  0  0
  1  2  2  0
  2  3  1  0
  3  4  1  0
  4  5  2  0
  4  6  1  0
  6  7  2  0
  7  8  1  0
  8  9  1  0
  9 10  2  0
 10 11  1  0
 11 12  2  0
 12 13  1  0
 13 14  2  0
 11 15  1  0
 15 16  1  0
 16 17  1  0
 17 18  1  0
 18 19  2  0
 19 20  1  0
 20 21  2  0
 21 22  1  0
 22 23  2  0
 21 24  1  0
  9 25  1  0
  5  1  1  0
 14  6  1  0
 13  8  1  0
 23 18  1  0
M  END
$$$$
