
     RDKit          3D

 25 28  0  0  0  0  0  0  0  0999 V2000
    2.4347   -0.3874    6.9442 C   0  0  0  0  0  0  0  0  0  0  0  0
    3.7045    0.1369    7.0627 C   0  0  0  0  0  0  0  0  0  0  0  0
    3.6410    1.2615    7.7253 O   0  0  0  0  0  0  0  0  0  0  0  0
    2.4136    1.5489    8.0720 C   0  0  0  0  0  0  0  0  0  0  0  0
    1.6124    0.5188    7.5910 C   0  0  0  0  0  0  0  0  0  0  0  0
    1.9526    2.7151    8.8170 C   0  0  0  0  0  0  0  0  0  0  0  0
    1.1171    3.6765    8.3909 N   0  0  0  0  0  0  0  0  0  0  0  0
    0.9118    4.5790    9.3134 N   0  0  0  0  0  0  0  0  0  0  0  0
    0.1674    5.7236    9.3778 C   0  0  0  0  0  0  0  0  0  0  0  0
    0.1860    6.4333   10.5144 N   0  0  0  0  0  0  0  0  0  0  0  0
    0.8926    6.0913   11.6010 C   0  0  0  0  0  0  0  0  0  0  0  0
    1.6218    4.9721   11.5413 N   0  0  0  0  0  0  0  0  0  0  0  0
    1.6201    4.2333   10.3983 C   0  0  0  0  0  0  0  0  0  0  0  0
    2.2621    3.0728   10.0755 N   0  0  0  0  0  0  0  0  0  0  0  0
    0.8347    6.9217   12.7492 N   0  0  0  0  0  0  0  0  0  0  0  0
    1.8220    6.7852   13.7780 C   0  0  0  0  0  0  0  0  0  0  0  0
    2.9865    7.7002   13.6452 C   0  0  0  0  0  0  0  0  0  0  0  0
    4.0278    7.4540   14.6677 C   0  0  0  0  0  0  0  0  0  0  0  0
    3.8269    6.5291   15.6639 C   0  0  0  0  0  0  0  0  0  0  0  0
    4.7997    6.2948   16.6423 C   0  0  0  0  0  0  0  0  0  0  0  0
    5.9659    6.9991   16.6018 C   0  0  0  0  0  0  0  0  0  0  0  0
    6.1761    7.9326   15.6010 C   0  0  0  0  0  0  0  0  0  0  0  0
    5.2351    8.1649   14.6477 C   0  0  0  0  0  0  0  0  0  0  0  0
    6.9518    6.7924   17.5557 O   0  0  0  0  0  0  0  0  0  0  0  0
   -0.5753    6.0780    8.2277 N   0  0  0  0  0  0  0  0  0  0  0  0
  1  2  2  0
  2  3  1  0
  3  4  1  0
  4  5  2  0
  4  6  1  0
  6  7  2  0
  7  8  1  0
  8  9  1  0
  9 10  2  0
 10 11  1  0
 11 12  2  0
 12 13  1  0
 13 14  2  0
 11 15  1  0
 15 16  1  0
 16 17  1  0
 17 18  1  0
 18 19  2  0
 19 20  1  0
 20 21  2  0
 21 22  1  0
 22 23  2  0
 21 24  1  0
  9 25  1  0
  5  1  1  0
 14  6  1  0
 13  8  1  0
 23 18  1  0
M  END
$$$$
