
     RDKit          3D

 25 28  0  0  0  0  0  0  0  0999 V2000
    1.5529    0.4780    6.3425 C   0  0  0  0  0  0  0  0  0  0  0  0
    2.8103    0.1782    6.8223 C   0  0  0  0  0  0  0  0  0  0  0  0
    3.1119    1.0151    7.7795 O   0  0  0  0  0  0  0  0  0  0  0  0
    2.1479    1.8722    7.9929 C   0  0  0  0  0  0  0  0  0  0  0  0
    1.1331    1.5619    7.0939 C   0  0  0  0  0  0  0  0  0  0  0  0
    2.1210    2.9499    8.9753 C   0  0  0  0  0  0  0  0  0  0  0  0
    2.9719    3.1437    9.9963 N   0  0  0  0  0  0  0  0  0  0  0  0
    2.6608    4.2089   10.6864 N   0  0  0  0  0  0  0  0  0  0  0  0
    3.1939    4.8213   11.7859 C   0  0  0  0  0  0  0  0  0  0  0  0
    2.6041    5.9336   12.2452 N   0  0  0  0  0  0  0  0  0  0  0  0
    1.5167    6.4892   11.6922 C   0  0  0  0  0  0  0  0  0  0  0  0
    0.9926    5.8925   10.6165 N   0  0  0  0  0  0  0  0  0  0  0  0
    1.5728    4.7615   10.1302 C   0  0  0  0  0  0  0  0  0  0  0  0
    1.2483    3.9685    9.0677 N   0  0  0  0  0  0  0  0  0  0  0  0
    0.9791    7.6693   12.2665 N   0  0  0  0  0  0  0  0  0  0  0  0
    1.6650    8.3124   13.3471 C   0  0  0  0  0  0  0  0  0  0  0  0
    1.2933    7.8180   14.6992 C   0  0  0  0  0  0  0  0  0  0  0  0
    2.2375    8.2594   15.7500 C   0  0  0  0  0  0  0  0  0  0  0  0
    3.4873    7.6970   15.8501 C   0  0  0  0  0  0  0  0  0  0  0  0
    4.3851    8.0987   16.8457 C   0  0  0  0  0  0  0  0  0  0  0  0
    4.0084    9.0657   17.7294 C   0  0  0  0  0  0  0  0  0  0  0  0
    2.7509    9.6374   17.6348 C   0  0  0  0  0  0  0  0  0  0  0  0
    1.8741    9.2516   16.6701 C   0  0  0  0  0  0  0  0  0  0  0  0
    4.8731    9.4878   18.7287 O   0  0  0  0  0  0  0  0  0  0  0  0
    4.3410    4.2295   12.3637 N   0  0  0  0  0  0  0  0  0  0  0  0
  1  2  2  0
  2  3  1  0
  3  4  1  0
  4  5  2  0
  4  6  1  0
  6  7  2  0
  7  8  1  0
  8  9  1  0
  9 10  2  0
 10 11  1  0
 11 12  2  0
 12 13  1  0
 13 14  2  0
 11 15  1  0
 15 16  1  0
 16 17  1  0
 17 18  1  0
 18 19  2  0
 19 20  1  0
 20 21  2  0
 21 22  1  0
 22 23  2  0
 21 24  1  0
  9 25  1  0
  5  1  1  0
 14  6  1  0
 13  8  1  0
 23 18  1  0
M  END
$$$$
