
     RDKit          3D

 25 28  0  0  0  0  0  0  0  0999 V2000
    0.8083    1.3879    6.2278 C   0  0  0  0  0  0  0  0  0  0  0  0
    1.8398    0.5633    6.6245 C   0  0  0  0  0  0  0  0  0  0  0  0
    2.4189    1.0807    7.6754 O   0  0  0  0  0  0  0  0  0  0  0  0
    1.8572    2.2065    8.0310 C   0  0  0  0  0  0  0  0  0  0  0  0
    0.8231    2.4374    7.1301 C   0  0  0  0  0  0  0  0  0  0  0  0
    2.2262    3.0672    9.1493 C   0  0  0  0  0  0  0  0  0  0  0  0
    3.0668    2.7795   10.1565 N   0  0  0  0  0  0  0  0  0  0  0  0
    3.1740    3.7773   10.9935 N   0  0  0  0  0  0  0  0  0  0  0  0
    3.8800    3.9828   12.1458 C   0  0  0  0  0  0  0  0  0  0  0  0
    3.7523    5.1617   12.7702 N   0  0  0  0  0  0  0  0  0  0  0  0
    2.9712    6.1605   12.3351 C   0  0  0  0  0  0  0  0  0  0  0  0
    2.2792    5.9626   11.2082 N   0  0  0  0  0  0  0  0  0  0  0  0
    2.3914    4.7739   10.5548 C   0  0  0  0  0  0  0  0  0  0  0  0
    1.8083    4.3187    9.4077 N   0  0  0  0  0  0  0  0  0  0  0  0
    2.9156    7.3656   13.0807 N   0  0  0  0  0  0  0  0  0  0  0  0
    2.4319    8.5640   12.4631 C   0  0  0  0  0  0  0  0  0  0  0  0
    1.9775    9.6122   13.4148 C   0  0  0  0  0  0  0  0  0  0  0  0
    0.5231    9.8727   13.3284 C   0  0  0  0  0  0  0  0  0  0  0  0
   -0.0963    9.9905   12.1074 C   0  0  0  0  0  0  0  0  0  0  0  0
   -1.4688   10.2469   12.0129 C   0  0  0  0  0  0  0  0  0  0  0  0
   -2.2000   10.3811   13.1553 C   0  0  0  0  0  0  0  0  0  0  0  0
   -1.5832   10.2633   14.3893 C   0  0  0  0  0  0  0  0  0  0  0  0
   -0.2504   10.0145   14.4880 C   0  0  0  0  0  0  0  0  0  0  0  0
   -3.5626   10.6356   13.0984 O   0  0  0  0  0  0  0  0  0  0  0  0
    4.7018    2.9248   12.5985 N   0  0  0  0  0  0  0  0  0  0  0  0
  1  2  2  0
  2  3  1  0
  3  4  1  0
  4  5  2  0
  4  6  1  0
  6  7  2  0
  7  8  1  0
  8  9  1  0
  9 10  2  0
 10 11  1  0
 11 12  2  0
 12 13  1  0
 13 14  2  0
 11 15  1  0
 15 16  1  0
 16 17  1  0
 17 18  1  0
 18 19  2  0
 19 20  1  0
 20 21  2  0
 21 22  1  0
 22 23  2  0
 21 24  1  0
  9 25  1  0
  5  1  1  0
 14  6  1  0
 13  8  1  0
 23 18  1  0
M  END
$$$$
