
     RDKit          3D

 25 28  0  0  0  0  0  0  0  0999 V2000
    1.0534    1.4293    6.5687 C   0  0  0  0  0  0  0  0  0  0  0  0
    2.1444    0.6930    6.9796 C   0  0  0  0  0  0  0  0  0  0  0  0
    2.6458    1.2386    8.0559 O   0  0  0  0  0  0  0  0  0  0  0  0
    1.9749    2.3015    8.4158 C   0  0  0  0  0  0  0  0  0  0  0  0
    0.9487    2.4569    7.4901 C   0  0  0  0  0  0  0  0  0  0  0  0
    2.2342    3.1685    9.5597 C   0  0  0  0  0  0  0  0  0  0  0  0
    3.0658    2.9343   10.5881 N   0  0  0  0  0  0  0  0  0  0  0  0
    3.0610    3.9210   11.4450 N   0  0  0  0  0  0  0  0  0  0  0  0
    3.7115    4.1637   12.6224 C   0  0  0  0  0  0  0  0  0  0  0  0
    3.4636    5.3147   13.2624 N   0  0  0  0  0  0  0  0  0  0  0  0
    2.6124    6.2510   12.8198 C   0  0  0  0  0  0  0  0  0  0  0  0
    1.9744    6.0166   11.6684 N   0  0  0  0  0  0  0  0  0  0  0  0
    2.2087    4.8551   10.9987 C   0  0  0  0  0  0  0  0  0  0  0  0
    1.7020    4.3741    9.8260 N   0  0  0  0  0  0  0  0  0  0  0  0
    2.4302    7.4320   13.5837 N   0  0  0  0  0  0  0  0  0  0  0  0
    1.6590    8.5144   13.0496 C   0  0  0  0  0  0  0  0  0  0  0  0
    0.2045    8.4472   13.3505 C   0  0  0  0  0  0  0  0  0  0  0  0
   -0.5791    9.4692   12.6211 C   0  0  0  0  0  0  0  0  0  0  0  0
   -0.1459   10.7718   12.5590 C   0  0  0  0  0  0  0  0  0  0  0  0
   -0.8833   11.7492   11.8811 C   0  0  0  0  0  0  0  0  0  0  0  0
   -2.0513   11.3976   11.2729 C   0  0  0  0  0  0  0  0  0  0  0  0
   -2.4943   10.0870   11.3307 C   0  0  0  0  0  0  0  0  0  0  0  0
   -1.7828    9.1330   11.9876 C   0  0  0  0  0  0  0  0  0  0  0  0
   -2.8074   12.3408   10.5923 O   0  0  0  0  0  0  0  0  0  0  0  0
    4.6078    3.1715   13.0829 N   0  0  0  0  0  0  0  0  0  0  0  0
  1  2  2  0
  2  3  1  0
  3  4  1  0
  4  5  2  0
  4  6  1  0
  6  7  2  0
  7  8  1  0
  8  9  1  0
  9 10  2  0
 10 11  1  0
 11 12  2  0
 12 13  1  0
 13 14  2  0
 11 15  1  0
 15 16  1  0
 16 17  1  0
 17 18  1  0
 18 19  2  0
 19 20  1  0
 20 21  2  0
 21 22  1  0
 22 23  2  0
 21 24  1  0
  9 25  1  0
  5  1  1  0
 14  6  1  0
 13  8  1  0
 23 18  1  0
M  END
$$$$
