
     RDKit          3D

 25 28  0  0  0  0  0  0  0  0999 V2000
    2.1557    0.4950    6.1460 C   0  0  0  0  0  0  0  0  0  0  0  0
    3.3721    0.2210    6.7347 C   0  0  0  0  0  0  0  0  0  0  0  0
    3.5146    0.9778    7.7904 O   0  0  0  0  0  0  0  0  0  0  0  0
    2.4792    1.7555    7.9703 C   0  0  0  0  0  0  0  0  0  0  0  0
    1.5881    1.4768    6.9394 C   0  0  0  0  0  0  0  0  0  0  0  0
    2.2773    2.7310    9.0358 C   0  0  0  0  0  0  0  0  0  0  0  0
    3.0152    2.8889   10.1469 N   0  0  0  0  0  0  0  0  0  0  0  0
    2.5582    3.8587   10.8941 N   0  0  0  0  0  0  0  0  0  0  0  0
    2.9396    4.4019   12.0890 C   0  0  0  0  0  0  0  0  0  0  0  0
    2.2229    5.4200   12.5845 N   0  0  0  0  0  0  0  0  0  0  0  0
    1.1476    5.9447   11.9800 C   0  0  0  0  0  0  0  0  0  0  0  0
    0.7717    5.4157   10.8110 N   0  0  0  0  0  0  0  0  0  0  0  0
    1.4830    4.3807   10.2861 C   0  0  0  0  0  0  0  0  0  0  0  0
    1.3200    3.6701    9.1321 N   0  0  0  0  0  0  0  0  0  0  0  0
    0.4669    7.0231   12.6006 N   0  0  0  0  0  0  0  0  0  0  0  0
    0.9580    7.5606   13.8340 C   0  0  0  0  0  0  0  0  0  0  0  0
    1.9826    8.6274   13.6813 C   0  0  0  0  0  0  0  0  0  0  0  0
    2.8716    8.7404   14.8592 C   0  0  0  0  0  0  0  0  0  0  0  0
    2.6102    8.0288   16.0052 C   0  0  0  0  0  0  0  0  0  0  0  0
    3.4376    8.1352   17.1290 C   0  0  0  0  0  0  0  0  0  0  0  0
    4.5210    8.9608   17.0807 C   0  0  0  0  0  0  0  0  0  0  0  0
    4.7913    9.6810   15.9293 C   0  0  0  0  0  0  0  0  0  0  0  0
    3.9915    9.5821   14.8345 C   0  0  0  0  0  0  0  0  0  0  0  0
    5.3623    9.0904   18.1761 O   0  0  0  0  0  0  0  0  0  0  0  0
    4.0748    3.8431   12.7207 N   0  0  0  0  0  0  0  0  0  0  0  0
  1  2  2  0
  2  3  1  0
  3  4  1  0
  4  5  2  0
  4  6  1  0
  6  7  2  0
  7  8  1  0
  8  9  1  0
  9 10  2  0
 10 11  1  0
 11 12  2  0
 12 13  1  0
 13 14  2  0
 11 15  1  0
 15 16  1  0
 16 17  1  0
 17 18  1  0
 18 19  2  0
 19 20  1  0
 20 21  2  0
 21 22  1  0
 22 23  2  0
 21 24  1  0
  9 25  1  0
  5  1  1  0
 14  6  1  0
 13  8  1  0
 23 18  1  0
M  END
$$$$
