
     RDKit          3D

 33 37  0  0  0  0  0  0  0  0999 V2000
    3.3824   -3.8026   18.1937 C   0  0  0  0  0  0  0  0  0  0  0  0
    2.1649   -3.0103   18.6208 C   0  0  0  0  0  0  0  0  0  0  0  0
    1.0581   -3.9230   19.0791 C   0  0  0  0  0  0  0  0  0  0  0  0
    1.6783   -2.1734   17.4773 C   0  0  0  0  0  0  0  0  0  0  0  0
    2.4854   -1.9707   16.3697 C   0  0  0  0  0  0  0  0  0  0  0  0
    2.0669   -1.2318   15.3476 N   0  0  0  0  0  0  0  0  0  0  0  0
    0.8508   -0.6223   15.2854 C   0  0  0  0  0  0  0  0  0  0  0  0
    0.0391   -0.8162   16.3808 C   0  0  0  0  0  0  0  0  0  0  0  0
    0.4489   -1.5851   17.4677 C   0  0  0  0  0  0  0  0  0  0  0  0
    0.4763    0.1629   14.1485 N   0  0  0  0  0  0  0  0  0  0  0  0
    1.5505    0.6642   13.3072 C   0  0  0  0  0  0  0  0  0  0  0  0
    0.9386    1.8468   12.5341 C   0  0  0  0  0  0  0  0  0  0  0  0
   -0.1070    1.1657   11.7223 N   0  0  0  0  0  0  0  0  0  0  0  0
   -1.2519    0.8034   12.4826 C   0  0  0  0  0  0  0  0  0  0  0  0
   -0.9157    0.3986   13.9175 C   0  0  0  0  0  0  0  0  0  0  0  0
    0.2489    0.9479   10.3794 C   0  0  0  0  0  0  0  0  0  0  0  0
    1.5940    0.9059   10.0558 N   0  0  0  0  0  0  0  0  0  0  0  0
    2.0837    0.6730    8.8984 N   0  0  0  0  0  0  0  0  0  0  0  0
    1.3097    0.4285    7.7975 C   0  0  0  0  0  0  0  0  0  0  0  0
   -0.0419    0.4511    8.0321 C   0  0  0  0  0  0  0  0  0  0  0  0
   -0.8994    0.2122    6.9903 C   0  0  0  0  0  0  0  0  0  0  0  0
   -2.2593    0.2323    7.2040 C   0  0  0  0  0  0  0  0  0  0  0  0
   -2.7836    0.4873    8.4449 C   0  0  0  0  0  0  0  0  0  0  0  0
   -1.9458    0.7300    9.5170 C   0  0  0  0  0  0  0  0  0  0  0  0
   -0.5835    0.7093    9.3107 C   0  0  0  0  0  0  0  0  0  0  0  0
    1.9325    0.2235    6.4779 C   0  0  0  0  0  0  0  0  0  0  0  0
    2.8999    1.2985    6.0992 C   0  0  0  0  0  0  0  0  0  0  0  0
    2.8300    2.5891    6.5255 C   0  0  0  0  0  0  0  0  0  0  0  0
    3.7904    3.5215    6.1281 C   0  0  0  0  0  0  0  0  0  0  0  0
    4.8399    3.1884    5.2973 C   0  0  0  0  0  0  0  0  0  0  0  0
    4.9209    1.8850    4.8586 C   0  0  0  0  0  0  0  0  0  0  0  0
    3.9752    0.9759    5.2531 C   0  0  0  0  0  0  0  0  0  0  0  0
    2.5382   -2.2206   19.7069 O   0  0  0  0  0  0  0  0  0  0  0  0
  1  2  1  0
  2  3  1  0
  2  4  1  0
  4  5  2  0
  5  6  1  0
  6  7  2  0
  7  8  1  0
  8  9  2  0
  7 10  1  0
 10 11  1  0
 11 12  1  0
 12 13  1  0
 13 14  1  0
 14 15  1  0
 13 16  1  0
 16 17  2  0
 17 18  1  0
 18 19  2  0
 19 20  1  0
 20 21  2  0
 21 22  1  0
 22 23  2  0
 23 24  1  0
 24 25  2  0
 19 26  1  0
 26 27  1  0
 27 28  2  0
 28 29  1  0
 29 30  2  0
 30 31  1  0
 31 32  2  0
  2 33  1  0
  9  4  1  0
 15 10  1  0
 25 16  1  0
 25 20  1  0
 32 27  1  0
M  END
$$$$
