
     RDKit          3D

 33 37  0  0  0  0  0  0  0  0999 V2000
    6.6761    7.8007   15.4942 C   0  0  0  0  0  0  0  0  0  0  0  0
    5.2197    7.6198   15.8666 C   0  0  0  0  0  0  0  0  0  0  0  0
    5.0628    7.3977   17.3478 C   0  0  0  0  0  0  0  0  0  0  0  0
    4.6486    6.4500   15.1249 C   0  0  0  0  0  0  0  0  0  0  0  0
    5.4848    5.4581   14.6388 C   0  0  0  0  0  0  0  0  0  0  0  0
    4.9926    4.4142   13.9800 N   0  0  0  0  0  0  0  0  0  0  0  0
    3.6694    4.2191   13.7252 C   0  0  0  0  0  0  0  0  0  0  0  0
    2.8277    5.1985   14.2033 C   0  0  0  0  0  0  0  0  0  0  0  0
    3.3127    6.3047   14.8974 C   0  0  0  0  0  0  0  0  0  0  0  0
    3.2189    3.0682   13.0027 N   0  0  0  0  0  0  0  0  0  0  0  0
    3.3244    1.7827   13.6729 C   0  0  0  0  0  0  0  0  0  0  0  0
    3.2876    0.7356   12.5445 C   0  0  0  0  0  0  0  0  0  0  0  0
    1.9223    0.9417   11.9883 N   0  0  0  0  0  0  0  0  0  0  0  0
    1.8198    2.1109   11.1867 C   0  0  0  0  0  0  0  0  0  0  0  0
    2.6992    3.2579   11.6834 C   0  0  0  0  0  0  0  0  0  0  0  0
    0.9747   -0.0106   12.4040 C   0  0  0  0  0  0  0  0  0  0  0  0
    1.2342   -0.7352   13.5545 N   0  0  0  0  0  0  0  0  0  0  0  0
    0.4608   -1.6001   14.0907 N   0  0  0  0  0  0  0  0  0  0  0  0
   -0.7624   -1.9278   13.5738 C   0  0  0  0  0  0  0  0  0  0  0  0
   -1.0991   -1.2516   12.4284 C   0  0  0  0  0  0  0  0  0  0  0  0
   -2.3088   -1.5086   11.8385 C   0  0  0  0  0  0  0  0  0  0  0  0
   -2.6650   -0.8425   10.6874 C   0  0  0  0  0  0  0  0  0  0  0  0
   -1.8325    0.0813   10.1102 C   0  0  0  0  0  0  0  0  0  0  0  0
   -0.6064    0.3650   10.6816 C   0  0  0  0  0  0  0  0  0  0  0  0
   -0.2445   -0.2965   11.8349 C   0  0  0  0  0  0  0  0  0  0  0  0
   -1.5838   -2.9749   14.2063 C   0  0  0  0  0  0  0  0  0  0  0  0
   -0.9773   -3.5415   15.4497 C   0  0  0  0  0  0  0  0  0  0  0  0
   -1.3342   -3.1907   16.7153 C   0  0  0  0  0  0  0  0  0  0  0  0
   -0.7188   -3.7865   17.8180 C   0  0  0  0  0  0  0  0  0  0  0  0
    0.2653   -4.7436   17.6834 C   0  0  0  0  0  0  0  0  0  0  0  0
    0.6356   -5.1066   16.4071 C   0  0  0  0  0  0  0  0  0  0  0  0
    0.0271   -4.5178   15.3303 C   0  0  0  0  0  0  0  0  0  0  0  0
    4.5543    8.8012   15.5438 O   0  0  0  0  0  0  0  0  0  0  0  0
  1  2  1  0
  2  3  1  0
  2  4  1  0
  4  5  2  0
  5  6  1  0
  6  7  2  0
  7  8  1  0
  8  9  2  0
  7 10  1  0
 10 11  1  0
 11 12  1  0
 12 13  1  0
 13 14  1  0
 14 15  1  0
 13 16  1  0
 16 17  2  0
 17 18  1  0
 18 19  2  0
 19 20  1  0
 20 21  2  0
 21 22  1  0
 22 23  2  0
 23 24  1  0
 24 25  2  0
 19 26  1  0
 26 27  1  0
 27 28  2  0
 28 29  1  0
 29 30  2  0
 30 31  1  0
 31 32  2  0
  2 33  1  0
  9  4  1  0
 15 10  1  0
 25 16  1  0
 25 20  1  0
 32 27  1  0
M  END
$$$$
