
     RDKit          3D

 33 37  0  0  0  0  0  0  0  0999 V2000
    2.4099   -0.3243    2.8333 C   0  0  0  0  0  0  0  0  0  0  0  0
    3.0980    0.9580    3.2513 C   0  0  0  0  0  0  0  0  0  0  0  0
    4.5948    0.8282    3.1476 C   0  0  0  0  0  0  0  0  0  0  0  0
    2.7246    1.2966    4.6623 C   0  0  0  0  0  0  0  0  0  0  0  0
    2.8367    0.3425    5.6604 C   0  0  0  0  0  0  0  0  0  0  0  0
    2.5102    0.6286    6.9164 N   0  0  0  0  0  0  0  0  0  0  0  0
    2.0505    1.8399    7.3354 C   0  0  0  0  0  0  0  0  0  0  0  0
    1.9344    2.7970    6.3521 C   0  0  0  0  0  0  0  0  0  0  0  0
    2.2685    2.5281    5.0267 C   0  0  0  0  0  0  0  0  0  0  0  0
    1.7149    2.0671    8.7084 N   0  0  0  0  0  0  0  0  0  0  0  0
    0.3761    1.6929    9.1333 C   0  0  0  0  0  0  0  0  0  0  0  0
    0.1227    2.4969   10.4218 C   0  0  0  0  0  0  0  0  0  0  0  0
    1.1542    1.9329   11.3351 N   0  0  0  0  0  0  0  0  0  0  0  0
    2.4644    2.4057   11.0526 C   0  0  0  0  0  0  0  0  0  0  0  0
    2.7093    2.6400    9.5624 C   0  0  0  0  0  0  0  0  0  0  0  0
    0.6620    0.9951   12.2604 C   0  0  0  0  0  0  0  0  0  0  0  0
    1.2014   -0.2796   12.2522 N   0  0  0  0  0  0  0  0  0  0  0  0
    0.9007   -1.2301   13.0520 N   0  0  0  0  0  0  0  0  0  0  0  0
   -0.0254   -1.0991   14.0501 C   0  0  0  0  0  0  0  0  0  0  0  0
   -0.6102    0.1395   14.1286 C   0  0  0  0  0  0  0  0  0  0  0  0
   -1.5481    0.3690   15.1009 C   0  0  0  0  0  0  0  0  0  0  0  0
   -2.1485    1.6043   15.1956 C   0  0  0  0  0  0  0  0  0  0  0  0
   -1.8289    2.6217   14.3339 C   0  0  0  0  0  0  0  0  0  0  0  0
   -0.8855    2.4232   13.3436 C   0  0  0  0  0  0  0  0  0  0  0  0
   -0.2790    1.1899   13.2444 C   0  0  0  0  0  0  0  0  0  0  0  0
   -0.3703   -2.2494   14.9039 C   0  0  0  0  0  0  0  0  0  0  0  0
    0.7368   -2.6711   15.8157 C   0  0  0  0  0  0  0  0  0  0  0  0
    1.0776   -3.9630   16.0749 C   0  0  0  0  0  0  0  0  0  0  0  0
    2.1387   -4.2594   16.9326 C   0  0  0  0  0  0  0  0  0  0  0  0
    2.8822   -3.2756   17.5507 C   0  0  0  0  0  0  0  0  0  0  0  0
    2.5462   -1.9640   17.2968 C   0  0  0  0  0  0  0  0  0  0  0  0
    1.5041   -1.6811   16.4539 C   0  0  0  0  0  0  0  0  0  0  0  0
    2.6981    1.9568    2.3653 O   0  0  0  0  0  0  0  0  0  0  0  0
  1  2  1  0
  2  3  1  0
  2  4  1  0
  4  5  2  0
  5  6  1  0
  6  7  2  0
  7  8  1  0
  8  9  2  0
  7 10  1  0
 10 11  1  0
 11 12  1  0
 12 13  1  0
 13 14  1  0
 14 15  1  0
 13 16  1  0
 16 17  2  0
 17 18  1  0
 18 19  2  0
 19 20  1  0
 20 21  2  0
 21 22  1  0
 22 23  2  0
 23 24  1  0
 24 25  2  0
 19 26  1  0
 26 27  1  0
 27 28  2  0
 28 29  1  0
 29 30  2  0
 30 31  1  0
 31 32  2  0
  2 33  1  0
  9  4  1  0
 15 10  1  0
 25 16  1  0
 25 20  1  0
 32 27  1  0
M  END
$$$$
