
     RDKit          3D

 33 37  0  0  0  0  0  0  0  0999 V2000
   -0.2944   -2.6532   18.5263 C   0  0  0  0  0  0  0  0  0  0  0  0
    0.6737   -1.4914   18.6023 C   0  0  0  0  0  0  0  0  0  0  0  0
    0.1717   -0.4287   19.5439 C   0  0  0  0  0  0  0  0  0  0  0  0
    0.8626   -0.8993   17.2390 C   0  0  0  0  0  0  0  0  0  0  0  0
    1.2598   -1.7004   16.1808 C   0  0  0  0  0  0  0  0  0  0  0  0
    1.4304   -1.1895   14.9660 N   0  0  0  0  0  0  0  0  0  0  0  0
    1.2400    0.1208   14.6483 C   0  0  0  0  0  0  0  0  0  0  0  0
    0.8450    0.9276   15.6920 C   0  0  0  0  0  0  0  0  0  0  0  0
    0.6577    0.4223   16.9767 C   0  0  0  0  0  0  0  0  0  0  0  0
    1.4503    0.5947   13.3139 N   0  0  0  0  0  0  0  0  0  0  0  0
    1.5888   -0.4071   12.2698 C   0  0  0  0  0  0  0  0  0  0  0  0
    2.3036    0.3136   11.1120 C   0  0  0  0  0  0  0  0  0  0  0  0
    1.2997    1.3467   10.7363 N   0  0  0  0  0  0  0  0  0  0  0  0
    1.2494    2.4314   11.6532 C   0  0  0  0  0  0  0  0  0  0  0  0
    1.5082    2.0078   13.0986 C   0  0  0  0  0  0  0  0  0  0  0  0
    0.5454    1.0357    9.5909 C   0  0  0  0  0  0  0  0  0  0  0  0
   -0.6768    0.4086    9.7607 N   0  0  0  0  0  0  0  0  0  0  0  0
   -1.5010    0.1008    8.8336 N   0  0  0  0  0  0  0  0  0  0  0  0
   -1.2670    0.3625    7.5116 C   0  0  0  0  0  0  0  0  0  0  0  0
   -0.0723    0.9862    7.2548 C   0  0  0  0  0  0  0  0  0  0  0  0
    0.2493    1.2943    5.9590 C   0  0  0  0  0  0  0  0  0  0  0  0
    1.4443    1.9184    5.6795 C   0  0  0  0  0  0  0  0  0  0  0  0
    2.3299    2.2435    6.6743 C   0  0  0  0  0  0  0  0  0  0  0  0
    2.0345    1.9485    7.9918 C   0  0  0  0  0  0  0  0  0  0  0  0
    0.8393    1.3258    8.2789 C   0  0  0  0  0  0  0  0  0  0  0  0
   -2.2304   -0.0686    6.4835 C   0  0  0  0  0  0  0  0  0  0  0  0
   -3.4771   -0.6714    7.0469 C   0  0  0  0  0  0  0  0  0  0  0  0
   -4.7210   -0.1322    6.9275 C   0  0  0  0  0  0  0  0  0  0  0  0
   -5.8307   -0.7772    7.4772 C   0  0  0  0  0  0  0  0  0  0  0  0
   -5.7248   -1.9722    8.1580 C   0  0  0  0  0  0  0  0  0  0  0  0
   -4.4706   -2.5275    8.2861 C   0  0  0  0  0  0  0  0  0  0  0  0
   -3.3868   -1.8890    7.7437 C   0  0  0  0  0  0  0  0  0  0  0  0
    1.8740   -1.9786   19.1165 O   0  0  0  0  0  0  0  0  0  0  0  0
  1  2  1  0
  2  3  1  0
  2  4  1  0
  4  5  2  0
  5  6  1  0
  6  7  2  0
  7  8  1  0
  8  9  2  0
  7 10  1  0
 10 11  1  0
 11 12  1  0
 12 13  1  0
 13 14  1  0
 14 15  1  0
 13 16  1  0
 16 17  2  0
 17 18  1  0
 18 19  2  0
 19 20  1  0
 20 21  2  0
 21 22  1  0
 22 23  2  0
 23 24  1  0
 24 25  2  0
 19 26  1  0
 26 27  1  0
 27 28  2  0
 28 29  1  0
 29 30  2  0
 30 31  1  0
 31 32  2  0
  2 33  1  0
  9  4  1  0
 15 10  1  0
 25 16  1  0
 25 20  1  0
 32 27  1  0
M  END
$$$$
