
     RDKit          3D

 33 37  0  0  0  0  0  0  0  0999 V2000
    3.9239    2.2494    3.0117 C   0  0  0  0  0  0  0  0  0  0  0  0
    2.5585    2.1386    3.6566 C   0  0  0  0  0  0  0  0  0  0  0  0
    1.8601    3.4726    3.6792 C   0  0  0  0  0  0  0  0  0  0  0  0
    2.7000    1.6273    5.0578 C   0  0  0  0  0  0  0  0  0  0  0  0
    2.2311    0.3667    5.3898 C   0  0  0  0  0  0  0  0  0  0  0  0
    2.3506   -0.1005    6.6281 N   0  0  0  0  0  0  0  0  0  0  0  0
    2.9231    0.5835    7.6569 C   0  0  0  0  0  0  0  0  0  0  0  0
    3.3931    1.8383    7.3395 C   0  0  0  0  0  0  0  0  0  0  0  0
    3.2827    2.3563    6.0510 C   0  0  0  0  0  0  0  0  0  0  0  0
    3.0088    0.0111    8.9663 N   0  0  0  0  0  0  0  0  0  0  0  0
    2.8963    0.9202   10.0949 C   0  0  0  0  0  0  0  0  0  0  0  0
    3.5297    0.1703   11.2812 C   0  0  0  0  0  0  0  0  0  0  0  0
    2.6077   -0.9889   11.4303 N   0  0  0  0  0  0  0  0  0  0  0  0
    2.7998   -1.9831   10.4331 C   0  0  0  0  0  0  0  0  0  0  0  0
    3.1963   -1.4029    9.0759 C   0  0  0  0  0  0  0  0  0  0  0  0
    1.6799   -0.8632   12.4797 C   0  0  0  0  0  0  0  0  0  0  0  0
    1.8096   -1.7012   13.5737 N   0  0  0  0  0  0  0  0  0  0  0  0
    1.0828   -1.6858   14.6249 N   0  0  0  0  0  0  0  0  0  0  0  0
    0.0495   -0.8075   14.8035 C   0  0  0  0  0  0  0  0  0  0  0  0
   -0.1479    0.0628   13.7614 C   0  0  0  0  0  0  0  0  0  0  0  0
   -1.1577    0.9847   13.8501 C   0  0  0  0  0  0  0  0  0  0  0  0
   -1.3740    1.8658   12.8146 C   0  0  0  0  0  0  0  0  0  0  0  0
   -0.5970    1.8450   11.6852 C   0  0  0  0  0  0  0  0  0  0  0  0
    0.4310    0.9290   11.5654 C   0  0  0  0  0  0  0  0  0  0  0  0
    0.6544    0.0456   12.5991 C   0  0  0  0  0  0  0  0  0  0  0  0
   -0.7886   -0.8771   16.0133 C   0  0  0  0  0  0  0  0  0  0  0  0
   -0.0779   -1.4398   17.2021 C   0  0  0  0  0  0  0  0  0  0  0  0
    0.3322   -2.7322   17.3196 C   0  0  0  0  0  0  0  0  0  0  0  0
    1.0028   -3.1633   18.4659 C   0  0  0  0  0  0  0  0  0  0  0  0
    1.2784   -2.3166   19.5194 C   0  0  0  0  0  0  0  0  0  0  0  0
    0.8676   -1.0060   19.4124 C   0  0  0  0  0  0  0  0  0  0  0  0
    0.2105   -0.5905   18.2846 C   0  0  0  0  0  0  0  0  0  0  0  0
    1.7940    1.2747    2.8743 O   0  0  0  0  0  0  0  0  0  0  0  0
  1  2  1  0
  2  3  1  0
  2  4  1  0
  4  5  2  0
  5  6  1  0
  6  7  2  0
  7  8  1  0
  8  9  2  0
  7 10  1  0
 10 11  1  0
 11 12  1  0
 12 13  1  0
 13 14  1  0
 14 15  1  0
 13 16  1  0
 16 17  2  0
 17 18  1  0
 18 19  2  0
 19 20  1  0
 20 21  2  0
 21 22  1  0
 22 23  2  0
 23 24  1  0
 24 25  2  0
 19 26  1  0
 26 27  1  0
 27 28  2  0
 28 29  1  0
 29 30  2  0
 30 31  1  0
 31 32  2  0
  2 33  1  0
  9  4  1  0
 15 10  1  0
 25 16  1  0
 25 20  1  0
 32 27  1  0
M  END
$$$$
