
     RDKit          3D

 33 37  0  0  0  0  0  0  0  0999 V2000
   -0.3745   -1.4855   17.2042 C   0  0  0  0  0  0  0  0  0  0  0  0
    0.0656   -2.3641   16.0523 C   0  0  0  0  0  0  0  0  0  0  0  0
    1.1667   -3.3004   16.4751 C   0  0  0  0  0  0  0  0  0  0  0  0
    0.5462   -1.5104   14.9188 C   0  0  0  0  0  0  0  0  0  0  0  0
   -0.2936   -1.2303   13.8532 C   0  0  0  0  0  0  0  0  0  0  0  0
    0.1186   -0.4738   12.8413 N   0  0  0  0  0  0  0  0  0  0  0  0
    1.3584    0.0819   12.7509 C   0  0  0  0  0  0  0  0  0  0  0  0
    2.2028   -0.1894   13.8043 C   0  0  0  0  0  0  0  0  0  0  0  0
    1.8006   -0.9788   14.8793 C   0  0  0  0  0  0  0  0  0  0  0  0
    1.7277    0.8823   11.6228 N   0  0  0  0  0  0  0  0  0  0  0  0
    2.5195    0.2404   10.5865 C   0  0  0  0  0  0  0  0  0  0  0  0
    3.1909    1.3944    9.8194 C   0  0  0  0  0  0  0  0  0  0  0  0
    2.0124    2.0949    9.2394 N   0  0  0  0  0  0  0  0  0  0  0  0
    1.3013    2.8702   10.1951 C   0  0  0  0  0  0  0  0  0  0  0  0
    1.2963    2.2459   11.5900 C   0  0  0  0  0  0  0  0  0  0  0  0
    1.7796    1.8151    7.8810 C   0  0  0  0  0  0  0  0  0  0  0  0
    0.5099    1.4152    7.5019 N   0  0  0  0  0  0  0  0  0  0  0  0
    0.1222    1.1687    6.3092 N   0  0  0  0  0  0  0  0  0  0  0  0
    0.9453    1.2735    5.2217 C   0  0  0  0  0  0  0  0  0  0  0  0
    2.2274    1.6672    5.5106 C   0  0  0  0  0  0  0  0  0  0  0  0
    3.1252    1.8053    4.4848 C   0  0  0  0  0  0  0  0  0  0  0  0
    4.4173    2.1974    4.7534 C   0  0  0  0  0  0  0  0  0  0  0  0
    4.8335    2.4564    6.0338 C   0  0  0  0  0  0  0  0  0  0  0  0
    3.9519    2.3287    7.0905 C   0  0  0  0  0  0  0  0  0  0  0  0
    2.6565    1.9387    6.8286 C   0  0  0  0  0  0  0  0  0  0  0  0
    0.4550    0.9203    3.8778 C   0  0  0  0  0  0  0  0  0  0  0  0
   -1.0354    0.9360    3.7614 C   0  0  0  0  0  0  0  0  0  0  0  0
   -1.8495   -0.1034    4.0919 C   0  0  0  0  0  0  0  0  0  0  0  0
   -3.2350    0.0100    3.9614 C   0  0  0  0  0  0  0  0  0  0  0  0
   -3.8388    1.1606    3.4985 C   0  0  0  0  0  0  0  0  0  0  0  0
   -3.0251    2.2194    3.1599 C   0  0  0  0  0  0  0  0  0  0  0  0
   -1.6667    2.1007    3.2910 C   0  0  0  0  0  0  0  0  0  0  0  0
   -1.0285   -3.1413   15.6759 O   0  0  0  0  0  0  0  0  0  0  0  0
  1  2  1  0
  2  3  1  0
  2  4  1  0
  4  5  2  0
  5  6  1  0
  6  7  2  0
  7  8  1  0
  8  9  2  0
  7 10  1  0
 10 11  1  0
 11 12  1  0
 12 13  1  0
 13 14  1  0
 14 15  1  0
 13 16  1  0
 16 17  2  0
 17 18  1  0
 18 19  2  0
 19 20  1  0
 20 21  2  0
 21 22  1  0
 22 23  2  0
 23 24  1  0
 24 25  2  0
 19 26  1  0
 26 27  1  0
 27 28  2  0
 28 29  1  0
 29 30  2  0
 30 31  1  0
 31 32  2  0
  2 33  1  0
  9  4  1  0
 15 10  1  0
 25 16  1  0
 25 20  1  0
 32 27  1  0
M  END
$$$$
