
     RDKit          3D

 33 37  0  0  0  0  0  0  0  0999 V2000
    3.9977    4.5749    5.5242 C   0  0  0  0  0  0  0  0  0  0  0  0
    4.3194    3.1370    5.1759 C   0  0  0  0  0  0  0  0  0  0  0  0
    3.6734    2.7370    3.8757 C   0  0  0  0  0  0  0  0  0  0  0  0
    3.8399    2.2314    6.2690 C   0  0  0  0  0  0  0  0  0  0  0  0
    2.4924    2.1749    6.5856 C   0  0  0  0  0  0  0  0  0  0  0  0
    2.0523    1.3758    7.5519 N   0  0  0  0  0  0  0  0  0  0  0  0
    2.8479    0.5626    8.3002 C   0  0  0  0  0  0  0  0  0  0  0  0
    4.1899    0.6099    7.9951 C   0  0  0  0  0  0  0  0  0  0  0  0
    4.6822    1.4371    6.9881 C   0  0  0  0  0  0  0  0  0  0  0  0
    2.2960   -0.2664    9.3286 N   0  0  0  0  0  0  0  0  0  0  0  0
    3.0193   -0.3291   10.5878 C   0  0  0  0  0  0  0  0  0  0  0  0
    2.5380   -1.6254   11.2651 C   0  0  0  0  0  0  0  0  0  0  0  0
    1.0959   -1.3302   11.4874 N   0  0  0  0  0  0  0  0  0  0  0  0
    0.3212   -1.4197   10.2992 C   0  0  0  0  0  0  0  0  0  0  0  0
    1.0813   -0.9697    9.0520 C   0  0  0  0  0  0  0  0  0  0  0  0
    0.7746   -0.9570   12.8046 C   0  0  0  0  0  0  0  0  0  0  0  0
    1.6721   -1.2671   13.8117 N   0  0  0  0  0  0  0  0  0  0  0  0
    1.5541   -0.9603   15.0468 N   0  0  0  0  0  0  0  0  0  0  0  0
    0.4871   -0.2628   15.5426 C   0  0  0  0  0  0  0  0  0  0  0  0
   -0.4531    0.0860   14.6063 C   0  0  0  0  0  0  0  0  0  0  0  0
   -1.5572    0.7917   15.0069 C   0  0  0  0  0  0  0  0  0  0  0  0
   -2.5136    1.1498   14.0836 C   0  0  0  0  0  0  0  0  0  0  0  0
   -2.3886    0.8156   12.7598 C   0  0  0  0  0  0  0  0  0  0  0  0
   -1.2859    0.1061   12.3230 C   0  0  0  0  0  0  0  0  0  0  0  0
   -0.3238   -0.2536   13.2415 C   0  0  0  0  0  0  0  0  0  0  0  0
    0.3802    0.0109   16.9865 C   0  0  0  0  0  0  0  0  0  0  0  0
    1.7029    0.1697   17.6650 C   0  0  0  0  0  0  0  0  0  0  0  0
    2.2741    1.3644   17.9792 C   0  0  0  0  0  0  0  0  0  0  0  0
    3.5101    1.4124   18.6270 C   0  0  0  0  0  0  0  0  0  0  0  0
    4.2033    0.2717   18.9749 C   0  0  0  0  0  0  0  0  0  0  0  0
    3.6355   -0.9436   18.6614 C   0  0  0  0  0  0  0  0  0  0  0  0
    2.4225   -0.9826   18.0261 C   0  0  0  0  0  0  0  0  0  0  0  0
    5.7000    3.0449    5.0076 O   0  0  0  0  0  0  0  0  0  0  0  0
  1  2  1  0
  2  3  1  0
  2  4  1  0
  4  5  2  0
  5  6  1  0
  6  7  2  0
  7  8  1  0
  8  9  2  0
  7 10  1  0
 10 11  1  0
 11 12  1  0
 12 13  1  0
 13 14  1  0
 14 15  1  0
 13 16  1  0
 16 17  2  0
 17 18  1  0
 18 19  2  0
 19 20  1  0
 20 21  2  0
 21 22  1  0
 22 23  2  0
 23 24  1  0
 24 25  2  0
 19 26  1  0
 26 27  1  0
 27 28  2  0
 28 29  1  0
 29 30  2  0
 30 31  1  0
 31 32  2  0
  2 33  1  0
  9  4  1  0
 15 10  1  0
 25 16  1  0
 25 20  1  0
 32 27  1  0
M  END
$$$$
