
     RDKit          3D

 33 37  0  0  0  0  0  0  0  0999 V2000
    3.5384    1.9782    3.4708 C   0  0  0  0  0  0  0  0  0  0  0  0
    4.3549    1.7260    4.7207 C   0  0  0  0  0  0  0  0  0  0  0  0
    5.1340    0.4421    4.6089 C   0  0  0  0  0  0  0  0  0  0  0  0
    3.4490    1.6561    5.9120 C   0  0  0  0  0  0  0  0  0  0  0  0
    3.6069    2.5480    6.9603 C   0  0  0  0  0  0  0  0  0  0  0  0
    2.8104    2.4987    8.0229 N   0  0  0  0  0  0  0  0  0  0  0  0
    1.7976    1.6031    8.1847 C   0  0  0  0  0  0  0  0  0  0  0  0
    1.6305    0.7108    7.1493 C   0  0  0  0  0  0  0  0  0  0  0  0
    2.4490    0.7367    6.0223 C   0  0  0  0  0  0  0  0  0  0  0  0
    0.9861    1.6122    9.3640 N   0  0  0  0  0  0  0  0  0  0  0  0
    0.7680    0.3374   10.0275 C   0  0  0  0  0  0  0  0  0  0  0  0
   -0.4960    0.5394   10.8832 C   0  0  0  0  0  0  0  0  0  0  0  0
   -0.0420    1.5774   11.8488 N   0  0  0  0  0  0  0  0  0  0  0  0
    0.0276    2.8763   11.2759 C   0  0  0  0  0  0  0  0  0  0  0  0
    0.4503    2.8624    9.8073 C   0  0  0  0  0  0  0  0  0  0  0  0
    0.2947    1.0814   13.1209 C   0  0  0  0  0  0  0  0  0  0  0  0
    1.5944    0.6573   13.3367 N   0  0  0  0  0  0  0  0  0  0  0  0
    2.0728    0.2258   14.4406 N   0  0  0  0  0  0  0  0  0  0  0  0
    1.3312    0.1263   15.5856 C   0  0  0  0  0  0  0  0  0  0  0  0
    0.0258    0.5289   15.4583 C   0  0  0  0  0  0  0  0  0  0  0  0
   -0.7955    0.4705   16.5536 C   0  0  0  0  0  0  0  0  0  0  0  0
   -2.1093    0.8679   16.4468 C   0  0  0  0  0  0  0  0  0  0  0  0
   -2.6227    1.3256   15.2608 C   0  0  0  0  0  0  0  0  0  0  0  0
   -1.8201    1.3989   14.1380 C   0  0  0  0  0  0  0  0  0  0  0  0
   -0.5036    1.0049   14.2384 C   0  0  0  0  0  0  0  0  0  0  0  0
    1.9245   -0.4330   16.8129 C   0  0  0  0  0  0  0  0  0  0  0  0
    1.9217   -1.9274   16.8517 C   0  0  0  0  0  0  0  0  0  0  0  0
    2.6208   -2.7260   15.9998 C   0  0  0  0  0  0  0  0  0  0  0  0
    2.5663   -4.1158   16.1229 C   0  0  0  0  0  0  0  0  0  0  0  0
    1.8140   -4.7394   17.0965 C   0  0  0  0  0  0  0  0  0  0  0  0
    1.1014   -3.9415   17.9645 C   0  0  0  0  0  0  0  0  0  0  0  0
    1.1601   -2.5788   17.8376 C   0  0  0  0  0  0  0  0  0  0  0  0
    5.2726    2.7682    4.8395 O   0  0  0  0  0  0  0  0  0  0  0  0
  1  2  1  0
  2  3  1  0
  2  4  1  0
  4  5  2  0
  5  6  1  0
  6  7  2  0
  7  8  1  0
  8  9  2  0
  7 10  1  0
 10 11  1  0
 11 12  1  0
 12 13  1  0
 13 14  1  0
 14 15  1  0
 13 16  1  0
 16 17  2  0
 17 18  1  0
 18 19  2  0
 19 20  1  0
 20 21  2  0
 21 22  1  0
 22 23  2  0
 23 24  1  0
 24 25  2  0
 19 26  1  0
 26 27  1  0
 27 28  2  0
 28 29  1  0
 29 30  2  0
 30 31  1  0
 31 32  2  0
  2 33  1  0
  9  4  1  0
 15 10  1  0
 25 16  1  0
 25 20  1  0
 32 27  1  0
M  END
$$$$
