
     RDKit          3D

 33 37  0  0  0  0  0  0  0  0999 V2000
   -0.1589    2.4815   22.0122 C   0  0  0  0  0  0  0  0  0  0  0  0
    1.3112    2.1871   21.8011 C   0  0  0  0  0  0  0  0  0  0  0  0
    2.1725    3.2487   22.4328 C   0  0  0  0  0  0  0  0  0  0  0  0
    1.6077    2.1135   20.3343 C   0  0  0  0  0  0  0  0  0  0  0  0
    0.7405    2.6873   19.4189 C   0  0  0  0  0  0  0  0  0  0  0  0
    0.9909    2.6309   18.1150 N   0  0  0  0  0  0  0  0  0  0  0  0
    2.0814    2.0281   17.5660 C   0  0  0  0  0  0  0  0  0  0  0  0
    2.9513    1.4537   18.4659 C   0  0  0  0  0  0  0  0  0  0  0  0
    2.7168    1.4958   19.8385 C   0  0  0  0  0  0  0  0  0  0  0  0
    2.2766    2.0060   16.1480 N   0  0  0  0  0  0  0  0  0  0  0  0
    2.5538    0.7161   15.5379 C   0  0  0  0  0  0  0  0  0  0  0  0
    3.2181    1.0431   14.1879 C   0  0  0  0  0  0  0  0  0  0  0  0
    2.1183    1.7497   13.4756 N   0  0  0  0  0  0  0  0  0  0  0  0
    1.9232    3.0801   13.9359 C   0  0  0  0  0  0  0  0  0  0  0  0
    2.1855    3.2416   15.4328 C   0  0  0  0  0  0  0  0  0  0  0  0
    1.4356    0.9617   12.5319 C   0  0  0  0  0  0  0  0  0  0  0  0
    1.1037   -0.3366   12.8785 N   0  0  0  0  0  0  0  0  0  0  0  0
    0.4474   -1.1643   12.1590 N   0  0  0  0  0  0  0  0  0  0  0  0
   -0.0242   -0.8570   10.9123 C   0  0  0  0  0  0  0  0  0  0  0  0
    0.2620    0.4168   10.4905 C   0  0  0  0  0  0  0  0  0  0  0  0
   -0.1736    0.8195    9.2553 C   0  0  0  0  0  0  0  0  0  0  0  0
    0.1048    2.0929    8.8123 C   0  0  0  0  0  0  0  0  0  0  0  0
    0.8134    2.9782    9.5829 C   0  0  0  0  0  0  0  0  0  0  0  0
    1.2650    2.6039   10.8343 C   0  0  0  0  0  0  0  0  0  0  0  0
    0.9881    1.3315   11.2849 C   0  0  0  0  0  0  0  0  0  0  0  0
   -0.7249   -1.8733   10.1079 C   0  0  0  0  0  0  0  0  0  0  0  0
   -2.0441   -2.2835   10.6793 C   0  0  0  0  0  0  0  0  0  0  0  0
   -2.2017   -3.0951   11.7603 C   0  0  0  0  0  0  0  0  0  0  0  0
   -3.4776   -3.4123   12.2306 C   0  0  0  0  0  0  0  0  0  0  0  0
   -4.6232   -2.9285   11.6338 C   0  0  0  0  0  0  0  0  0  0  0  0
   -4.4765   -2.1064   10.5381 C   0  0  0  0  0  0  0  0  0  0  0  0
   -3.2215   -1.7995   10.0828 C   0  0  0  0  0  0  0  0  0  0  0  0
    1.5930    0.9800   22.4385 O   0  0  0  0  0  0  0  0  0  0  0  0
  1  2  1  0
  2  3  1  0
  2  4  1  0
  4  5  2  0
  5  6  1  0
  6  7  2  0
  7  8  1  0
  8  9  2  0
  7 10  1  0
 10 11  1  0
 11 12  1  0
 12 13  1  0
 13 14  1  0
 14 15  1  0
 13 16  1  0
 16 17  2  0
 17 18  1  0
 18 19  2  0
 19 20  1  0
 20 21  2  0
 21 22  1  0
 22 23  2  0
 23 24  1  0
 24 25  2  0
 19 26  1  0
 26 27  1  0
 27 28  2  0
 28 29  1  0
 29 30  2  0
 30 31  1  0
 31 32  2  0
  2 33  1  0
  9  4  1  0
 15 10  1  0
 25 16  1  0
 25 20  1  0
 32 27  1  0
M  END
$$$$
