
     RDKit          3D

 33 37  0  0  0  0  0  0  0  0999 V2000
    2.2895   -1.8478   20.5797 C   0  0  0  0  0  0  0  0  0  0  0  0
    1.8954   -2.8186   19.4867 C   0  0  0  0  0  0  0  0  0  0  0  0
    3.0319   -3.7484   19.1524 C   0  0  0  0  0  0  0  0  0  0  0  0
    1.4937   -2.0619   18.2575 C   0  0  0  0  0  0  0  0  0  0  0  0
    2.3630   -1.1451   17.6890 C   0  0  0  0  0  0  0  0  0  0  0  0
    2.0209   -0.4674   16.5983 N   0  0  0  0  0  0  0  0  0  0  0  0
    0.8292   -0.5986   15.9527 C   0  0  0  0  0  0  0  0  0  0  0  0
   -0.0438   -1.5070   16.5084 C   0  0  0  0  0  0  0  0  0  0  0  0
    0.2852   -2.2327   17.6511 C   0  0  0  0  0  0  0  0  0  0  0  0
    0.5343    0.1736   14.7839 N   0  0  0  0  0  0  0  0  0  0  0  0
    1.6632    0.6327   13.9915 C   0  0  0  0  0  0  0  0  0  0  0  0
    1.1223    1.8147   13.1663 C   0  0  0  0  0  0  0  0  0  0  0  0
    0.1037    1.1437   12.3129 N   0  0  0  0  0  0  0  0  0  0  0  0
   -1.0880    0.8236   13.0182 C   0  0  0  0  0  0  0  0  0  0  0  0
   -0.8374    0.4383   14.4757 C   0  0  0  0  0  0  0  0  0  0  0  0
    0.5236    0.8917   10.9946 C   0  0  0  0  0  0  0  0  0  0  0  0
    1.8654    0.6356   10.7713 N   0  0  0  0  0  0  0  0  0  0  0  0
    2.3999    0.3441    9.6475 N   0  0  0  0  0  0  0  0  0  0  0  0
    1.6851    0.2466    8.4854 C   0  0  0  0  0  0  0  0  0  0  0  0
    0.3408    0.4860    8.6191 C   0  0  0  0  0  0  0  0  0  0  0  0
   -0.4599    0.4068    7.5100 C   0  0  0  0  0  0  0  0  0  0  0  0
   -1.8112    0.6454    7.6221 C   0  0  0  0  0  0  0  0  0  0  0  0
   -2.3827    0.9631    8.8271 C   0  0  0  0  0  0  0  0  0  0  0  0
   -1.6032    1.0488    9.9651 C   0  0  0  0  0  0  0  0  0  0  0  0
   -0.2503    0.8091    9.8605 C   0  0  0  0  0  0  0  0  0  0  0  0
    2.3678   -0.0367    7.2108 C   0  0  0  0  0  0  0  0  0  0  0  0
    2.9689    1.1739    6.5719 C   0  0  0  0  0  0  0  0  0  0  0  0
    4.1939    1.2102    5.9801 C   0  0  0  0  0  0  0  0  0  0  0  0
    4.6662    2.3873    5.3961 C   0  0  0  0  0  0  0  0  0  0  0  0
    3.9287    3.5530    5.3900 C   0  0  0  0  0  0  0  0  0  0  0  0
    2.6873    3.5289    5.9867 C   0  0  0  0  0  0  0  0  0  0  0  0
    2.2307    2.3702    6.5572 C   0  0  0  0  0  0  0  0  0  0  0  0
    0.8443   -3.5939   19.9733 O   0  0  0  0  0  0  0  0  0  0  0  0
  1  2  1  0
  2  3  1  0
  2  4  1  0
  4  5  2  0
  5  6  1  0
  6  7  2  0
  7  8  1  0
  8  9  2  0
  7 10  1  0
 10 11  1  0
 11 12  1  0
 12 13  1  0
 13 14  1  0
 14 15  1  0
 13 16  1  0
 16 17  2  0
 17 18  1  0
 18 19  2  0
 19 20  1  0
 20 21  2  0
 21 22  1  0
 22 23  2  0
 23 24  1  0
 24 25  2  0
 19 26  1  0
 26 27  1  0
 27 28  2  0
 28 29  1  0
 29 30  2  0
 30 31  1  0
 31 32  2  0
  2 33  1  0
  9  4  1  0
 15 10  1  0
 25 16  1  0
 25 20  1  0
 32 27  1  0
M  END
$$$$
