
     RDKit          3D

 33 37  0  0  0  0  0  0  0  0999 V2000
    3.3233    2.5975    3.4486 C   0  0  0  0  0  0  0  0  0  0  0  0
    1.8970    2.8021    3.9139 C   0  0  0  0  0  0  0  0  0  0  0  0
    1.6368    4.2485    4.2426 C   0  0  0  0  0  0  0  0  0  0  0  0
    1.6340    1.9613    5.1258 C   0  0  0  0  0  0  0  0  0  0  0  0
    2.6504    1.7097    6.0328 C   0  0  0  0  0  0  0  0  0  0  0  0
    2.4317    0.9666    7.1127 N   0  0  0  0  0  0  0  0  0  0  0  0
    1.2345    0.3990    7.4268 C   0  0  0  0  0  0  0  0  0  0  0  0
    0.2158    0.6418    6.5326 C   0  0  0  0  0  0  0  0  0  0  0  0
    0.4134    1.4163    5.3916 C   0  0  0  0  0  0  0  0  0  0  0  0
    1.0814   -0.3940    8.6088 N   0  0  0  0  0  0  0  0  0  0  0  0
    2.2509   -0.5490    9.4581 C   0  0  0  0  0  0  0  0  0  0  0  0
    1.9728   -1.8069   10.3013 C   0  0  0  0  0  0  0  0  0  0  0  0
    0.7860   -1.3812   11.0928 N   0  0  0  0  0  0  0  0  0  0  0  0
   -0.4149   -1.3741   10.3327 C   0  0  0  0  0  0  0  0  0  0  0  0
   -0.1992   -0.9739    8.8737 C   0  0  0  0  0  0  0  0  0  0  0  0
    1.0740   -1.0048   12.4168 C   0  0  0  0  0  0  0  0  0  0  0  0
    0.8468   -1.9259   13.4248 N   0  0  0  0  0  0  0  0  0  0  0  0
    1.0970   -1.7603   14.6671 N   0  0  0  0  0  0  0  0  0  0  0  0
    1.6393   -0.6101   15.1711 C   0  0  0  0  0  0  0  0  0  0  0  0
    1.8972    0.3587   14.2346 C   0  0  0  0  0  0  0  0  0  0  0  0
    2.4461    1.5459   14.6431 C   0  0  0  0  0  0  0  0  0  0  0  0
    2.7108    2.5321   13.7196 C   0  0  0  0  0  0  0  0  0  0  0  0
    2.4372    2.3554   12.3878 C   0  0  0  0  0  0  0  0  0  0  0  0
    1.8856    1.1688   11.9430 C   0  0  0  0  0  0  0  0  0  0  0  0
    1.6201    0.1766   12.8616 C   0  0  0  0  0  0  0  0  0  0  0  0
    1.8515   -0.4579   16.6212 C   0  0  0  0  0  0  0  0  0  0  0  0
    0.5840   -0.3002   17.3982 C   0  0  0  0  0  0  0  0  0  0  0  0
   -0.1587   -1.3307   17.8868 C   0  0  0  0  0  0  0  0  0  0  0  0
   -1.3243   -1.0837   18.6148 C   0  0  0  0  0  0  0  0  0  0  0  0
   -1.7751    0.1946   18.8707 C   0  0  0  0  0  0  0  0  0  0  0  0
   -1.0321    1.2460   18.3805 C   0  0  0  0  0  0  0  0  0  0  0  0
    0.1105    0.9957   17.6676 C   0  0  0  0  0  0  0  0  0  0  0  0
    1.0570    2.4509    2.8586 O   0  0  0  0  0  0  0  0  0  0  0  0
  1  2  1  0
  2  3  1  0
  2  4  1  0
  4  5  2  0
  5  6  1  0
  6  7  2  0
  7  8  1  0
  8  9  2  0
  7 10  1  0
 10 11  1  0
 11 12  1  0
 12 13  1  0
 13 14  1  0
 14 15  1  0
 13 16  1  0
 16 17  2  0
 17 18  1  0
 18 19  2  0
 19 20  1  0
 20 21  2  0
 21 22  1  0
 22 23  2  0
 23 24  1  0
 24 25  2  0
 19 26  1  0
 26 27  1  0
 27 28  2  0
 28 29  1  0
 29 30  2  0
 30 31  1  0
 31 32  2  0
  2 33  1  0
  9  4  1  0
 15 10  1  0
 25 16  1  0
 25 20  1  0
 32 27  1  0
M  END
$$$$
