
     RDKit          3D

 33 37  0  0  0  0  0  0  0  0999 V2000
    1.4389   -3.7842   21.0331 C   0  0  0  0  0  0  0  0  0  0  0  0
    2.3843   -2.6460   20.7119 C   0  0  0  0  0  0  0  0  0  0  0  0
    2.4804   -1.6803   21.8634 C   0  0  0  0  0  0  0  0  0  0  0  0
    1.9065   -1.9195   19.4918 C   0  0  0  0  0  0  0  0  0  0  0  0
    2.8058   -1.5481   18.5056 C   0  0  0  0  0  0  0  0  0  0  0  0
    2.3965   -0.9042   17.4175 N   0  0  0  0  0  0  0  0  0  0  0  0
    1.1034   -0.5571   17.1693 C   0  0  0  0  0  0  0  0  0  0  0  0
    0.1997   -0.9208   18.1425 C   0  0  0  0  0  0  0  0  0  0  0  0
    0.5973   -1.5962   19.2942 C   0  0  0  0  0  0  0  0  0  0  0  0
    0.7438    0.1418   15.9728 N   0  0  0  0  0  0  0  0  0  0  0  0
    1.4614   -0.2110   14.7589 C   0  0  0  0  0  0  0  0  0  0  0  0
    1.2729    0.9912   13.8155 C   0  0  0  0  0  0  0  0  0  0  0  0
   -0.1992    0.9718   13.5950 N   0  0  0  0  0  0  0  0  0  0  0  0
   -0.9339    1.4663   14.7066 C   0  0  0  0  0  0  0  0  0  0  0  0
   -0.2880    1.1297   16.0502 C   0  0  0  0  0  0  0  0  0  0  0  0
   -0.5963    0.4138   12.3667 C   0  0  0  0  0  0  0  0  0  0  0  0
   -1.8134   -0.2427   12.3074 N   0  0  0  0  0  0  0  0  0  0  0  0
   -2.3394   -0.7620   11.2647 N   0  0  0  0  0  0  0  0  0  0  0  0
   -1.7415   -0.7318   10.0348 C   0  0  0  0  0  0  0  0  0  0  0  0
   -0.5261   -0.0960   10.0053 C   0  0  0  0  0  0  0  0  0  0  0  0
    0.1482   -0.0103    8.8155 C   0  0  0  0  0  0  0  0  0  0  0  0
    1.3702    0.6217    8.7645 C   0  0  0  0  0  0  0  0  0  0  0  0
    1.9359    1.1739    9.8847 C   0  0  0  0  0  0  0  0  0  0  0  0
    1.2805    1.1065   11.0996 C   0  0  0  0  0  0  0  0  0  0  0  0
    0.0560    0.4772   11.1574 C   0  0  0  0  0  0  0  0  0  0  0  0
   -2.3718   -1.3986    8.8819 C   0  0  0  0  0  0  0  0  0  0  0  0
   -3.7612   -0.9232    8.6017 C   0  0  0  0  0  0  0  0  0  0  0  0
   -4.8763   -1.3673    9.2432 C   0  0  0  0  0  0  0  0  0  0  0  0
   -6.1336   -0.8524    8.9213 C   0  0  0  0  0  0  0  0  0  0  0  0
   -6.3069    0.1150    7.9534 C   0  0  0  0  0  0  0  0  0  0  0  0
   -5.1855    0.5720    7.2966 C   0  0  0  0  0  0  0  0  0  0  0  0
   -3.9554    0.0622    7.6181 C   0  0  0  0  0  0  0  0  0  0  0  0
    3.6500   -3.1952   20.5143 O   0  0  0  0  0  0  0  0  0  0  0  0
  1  2  1  0
  2  3  1  0
  2  4  1  0
  4  5  2  0
  5  6  1  0
  6  7  2  0
  7  8  1  0
  8  9  2  0
  7 10  1  0
 10 11  1  0
 11 12  1  0
 12 13  1  0
 13 14  1  0
 14 15  1  0
 13 16  1  0
 16 17  2  0
 17 18  1  0
 18 19  2  0
 19 20  1  0
 20 21  2  0
 21 22  1  0
 22 23  2  0
 23 24  1  0
 24 25  2  0
 19 26  1  0
 26 27  1  0
 27 28  2  0
 28 29  1  0
 29 30  2  0
 30 31  1  0
 31 32  2  0
  2 33  1  0
  9  4  1  0
 15 10  1  0
 25 16  1  0
 25 20  1  0
 32 27  1  0
M  END
$$$$
