
     RDKit          3D

 33 37  0  0  0  0  0  0  0  0999 V2000
    3.8321    1.5957    2.7528 C   0  0  0  0  0  0  0  0  0  0  0  0
    3.6010    2.5040    3.9420 C   0  0  0  0  0  0  0  0  0  0  0  0
    4.8701    3.2115    4.3379 C   0  0  0  0  0  0  0  0  0  0  0  0
    3.0962    1.7014    5.1020 C   0  0  0  0  0  0  0  0  0  0  0  0
    1.9030    2.0421    5.7180 C   0  0  0  0  0  0  0  0  0  0  0  0
    1.4422    1.3389    6.7472 N   0  0  0  0  0  0  0  0  0  0  0  0
    2.0695    0.2547    7.2810 C   0  0  0  0  0  0  0  0  0  0  0  0
    3.2571   -0.0941    6.6774 C   0  0  0  0  0  0  0  0  0  0  0  0
    3.7665    0.6229    5.5970 C   0  0  0  0  0  0  0  0  0  0  0  0
    1.5092   -0.4473    8.3958 N   0  0  0  0  0  0  0  0  0  0  0  0
    2.3928   -0.7228    9.5166 C   0  0  0  0  0  0  0  0  0  0  0  0
    1.7276   -1.8840   10.2783 C   0  0  0  0  0  0  0  0  0  0  0  0
    0.4585   -1.2547   10.7360 N   0  0  0  0  0  0  0  0  0  0  0  0
   -0.4996   -1.1163    9.6954 C   0  0  0  0  0  0  0  0  0  0  0  0
    0.1310   -0.8257    8.3340 C   0  0  0  0  0  0  0  0  0  0  0  0
    0.4601   -0.8558   12.0845 C   0  0  0  0  0  0  0  0  0  0  0  0
    0.5161   -1.8374   13.0588 N   0  0  0  0  0  0  0  0  0  0  0  0
    0.5713   -1.6439   14.3210 N   0  0  0  0  0  0  0  0  0  0  0  0
    0.5817   -0.3973   14.8839 C   0  0  0  0  0  0  0  0  0  0  0  0
    0.5291    0.6370   13.9840 C   0  0  0  0  0  0  0  0  0  0  0  0
    0.5398    1.9245   14.4529 C   0  0  0  0  0  0  0  0  0  0  0  0
    0.4856    2.9768   13.5668 C   0  0  0  0  0  0  0  0  0  0  0  0
    0.4211    2.7680   12.2133 C   0  0  0  0  0  0  0  0  0  0  0  0
    0.4109    1.4817   11.7080 C   0  0  0  0  0  0  0  0  0  0  0  0
    0.4671    0.4237   12.5892 C   0  0  0  0  0  0  0  0  0  0  0  0
    0.5886   -0.2399   16.3489 C   0  0  0  0  0  0  0  0  0  0  0  0
    0.9504   -1.4908   17.0834 C   0  0  0  0  0  0  0  0  0  0  0  0
    0.2659   -1.9891   18.1490 C   0  0  0  0  0  0  0  0  0  0  0  0
    0.6729   -3.1752   18.7631 C   0  0  0  0  0  0  0  0  0  0  0  0
    1.7704   -3.8894   18.3294 C   0  0  0  0  0  0  0  0  0  0  0  0
    2.4719   -3.3945   17.2520 C   0  0  0  0  0  0  0  0  0  0  0  0
    2.0662   -2.2305   16.6546 C   0  0  0  0  0  0  0  0  0  0  0  0
    2.6790    3.4751    3.5552 O   0  0  0  0  0  0  0  0  0  0  0  0
  1  2  1  0
  2  3  1  0
  2  4  1  0
  4  5  2  0
  5  6  1  0
  6  7  2  0
  7  8  1  0
  8  9  2  0
  7 10  1  0
 10 11  1  0
 11 12  1  0
 12 13  1  0
 13 14  1  0
 14 15  1  0
 13 16  1  0
 16 17  2  0
 17 18  1  0
 18 19  2  0
 19 20  1  0
 20 21  2  0
 21 22  1  0
 22 23  2  0
 23 24  1  0
 24 25  2  0
 19 26  1  0
 26 27  1  0
 27 28  2  0
 28 29  1  0
 29 30  2  0
 30 31  1  0
 31 32  2  0
  2 33  1  0
  9  4  1  0
 15 10  1  0
 25 16  1  0
 25 20  1  0
 32 27  1  0
M  END
$$$$
