
     RDKit          3D

 33 37  0  0  0  0  0  0  0  0999 V2000
    1.1377   -3.3846   20.4705 C   0  0  0  0  0  0  0  0  0  0  0  0
    1.7441   -2.0101   20.6591 C   0  0  0  0  0  0  0  0  0  0  0  0
    0.9472   -1.1970   21.6448 C   0  0  0  0  0  0  0  0  0  0  0  0
    1.7909   -1.2923   19.3448 C   0  0  0  0  0  0  0  0  0  0  0  0
    0.6708   -0.6261   18.8749 C   0  0  0  0  0  0  0  0  0  0  0  0
    0.6978    0.0157   17.7115 N   0  0  0  0  0  0  0  0  0  0  0  0
    1.7848    0.0825   16.8943 C   0  0  0  0  0  0  0  0  0  0  0  0
    2.9049   -0.5762   17.3504 C   0  0  0  0  0  0  0  0  0  0  0  0
    2.9084   -1.2579   18.5653 C   0  0  0  0  0  0  0  0  0  0  0  0
    1.7313    0.7913   15.6517 N   0  0  0  0  0  0  0  0  0  0  0  0
    2.1229    0.0626   14.4564 C   0  0  0  0  0  0  0  0  0  0  0  0
    2.4736    1.1463   13.4204 C   0  0  0  0  0  0  0  0  0  0  0  0
    1.1589    1.8193   13.2334 N   0  0  0  0  0  0  0  0  0  0  0  0
    0.8136    2.6738   14.3154 C   0  0  0  0  0  0  0  0  0  0  0  0
    1.2992    2.1550   15.6683 C   0  0  0  0  0  0  0  0  0  0  0  0
    0.4735    1.4430   12.0645 C   0  0  0  0  0  0  0  0  0  0  0  0
   -0.8830    1.1828   12.1546 N   0  0  0  0  0  0  0  0  0  0  0  0
   -1.6573    0.8763   11.1850 N   0  0  0  0  0  0  0  0  0  0  0  0
   -1.2241    0.7632    9.8926 C   0  0  0  0  0  0  0  0  0  0  0  0
    0.1143    1.0067    9.7147 C   0  0  0  0  0  0  0  0  0  0  0  0
    0.6412    0.9224    8.4526 C   0  0  0  0  0  0  0  0  0  0  0  0
    1.9823    1.1610    8.2527 C   0  0  0  0  0  0  0  0  0  0  0  0
    2.8131    1.4847    9.2943 C   0  0  0  0  0  0  0  0  0  0  0  0
    2.3125    1.5800   10.5790 C   0  0  0  0  0  0  0  0  0  0  0  0
    0.9707    1.3446   10.7859 C   0  0  0  0  0  0  0  0  0  0  0  0
   -2.1543    0.3505    8.8270 C   0  0  0  0  0  0  0  0  0  0  0  0
   -2.9584   -0.8619    9.1709 C   0  0  0  0  0  0  0  0  0  0  0  0
   -3.4758   -1.1249   10.4019 C   0  0  0  0  0  0  0  0  0  0  0  0
   -4.2276   -2.2803   10.6245 C   0  0  0  0  0  0  0  0  0  0  0  0
   -4.4793   -3.1982    9.6261 C   0  0  0  0  0  0  0  0  0  0  0  0
   -3.9601   -2.9433    8.3758 C   0  0  0  0  0  0  0  0  0  0  0  0
   -3.2238   -1.8075    8.1651 C   0  0  0  0  0  0  0  0  0  0  0  0
    3.0211   -2.1842   21.1897 O   0  0  0  0  0  0  0  0  0  0  0  0
  1  2  1  0
  2  3  1  0
  2  4  1  0
  4  5  2  0
  5  6  1  0
  6  7  2  0
  7  8  1  0
  8  9  2  0
  7 10  1  0
 10 11  1  0
 11 12  1  0
 12 13  1  0
 13 14  1  0
 14 15  1  0
 13 16  1  0
 16 17  2  0
 17 18  1  0
 18 19  2  0
 19 20  1  0
 20 21  2  0
 21 22  1  0
 22 23  2  0
 23 24  1  0
 24 25  2  0
 19 26  1  0
 26 27  1  0
 27 28  2  0
 28 29  1  0
 29 30  2  0
 30 31  1  0
 31 32  2  0
  2 33  1  0
  9  4  1  0
 15 10  1  0
 25 16  1  0
 25 20  1  0
 32 27  1  0
M  END
$$$$
