
     RDKit          3D

 33 37  0  0  0  0  0  0  0  0999 V2000
    1.2569    7.4763   17.4611 C   0  0  0  0  0  0  0  0  0  0  0  0
    2.5191    6.6509   17.3263 C   0  0  0  0  0  0  0  0  0  0  0  0
    3.7284    7.5333   17.1626 C   0  0  0  0  0  0  0  0  0  0  0  0
    2.4044    5.7394   16.1428 C   0  0  0  0  0  0  0  0  0  0  0  0
    2.7265    4.3974   16.2636 C   0  0  0  0  0  0  0  0  0  0  0  0
    2.6286    3.5768   15.2229 N   0  0  0  0  0  0  0  0  0  0  0  0
    2.2182    3.9545   13.9808 C   0  0  0  0  0  0  0  0  0  0  0  0
    1.8952    5.2865   13.8478 C   0  0  0  0  0  0  0  0  0  0  0  0
    1.9873    6.1719   14.9194 C   0  0  0  0  0  0  0  0  0  0  0  0
    2.1447    3.0087   12.9086 N   0  0  0  0  0  0  0  0  0  0  0  0
    2.4268    1.6196   13.2307 C   0  0  0  0  0  0  0  0  0  0  0  0
    2.7905    0.9602   11.8877 C   0  0  0  0  0  0  0  0  0  0  0  0
    1.5129    1.0889   11.1345 N   0  0  0  0  0  0  0  0  0  0  0  0
    1.2790    2.4077   10.6589 C   0  0  0  0  0  0  0  0  0  0  0  0
    1.8009    3.4882   11.6054 C   0  0  0  0  0  0  0  0  0  0  0  0
    0.7451   -0.0883   11.0854 C   0  0  0  0  0  0  0  0  0  0  0  0
    1.2710   -1.2383   11.6483 N   0  0  0  0  0  0  0  0  0  0  0  0
    0.6877   -2.3727   11.7284 N   0  0  0  0  0  0  0  0  0  0  0  0
   -0.5737   -2.5973   11.2495 C   0  0  0  0  0  0  0  0  0  0  0  0
   -1.1699   -1.5040   10.6737 C   0  0  0  0  0  0  0  0  0  0  0  0
   -2.4376   -1.6296   10.1689 C   0  0  0  0  0  0  0  0  0  0  0  0
   -3.0530   -0.5453    9.5850 C   0  0  0  0  0  0  0  0  0  0  0  0
   -2.4244    0.6698    9.4950 C   0  0  0  0  0  0  0  0  0  0  0  0
   -1.1465    0.8301    9.9964 C   0  0  0  0  0  0  0  0  0  0  0  0
   -0.5254   -0.2504   10.5840 C   0  0  0  0  0  0  0  0  0  0  0  0
   -1.1703   -3.9427   11.3203 C   0  0  0  0  0  0  0  0  0  0  0  0
   -0.1627   -5.0371   11.4682 C   0  0  0  0  0  0  0  0  0  0  0  0
   -0.1665   -5.9645   12.4643 C   0  0  0  0  0  0  0  0  0  0  0  0
    0.8113   -6.9601   12.5118 C   0  0  0  0  0  0  0  0  0  0  0  0
    1.8137   -7.0527   11.5687 C   0  0  0  0  0  0  0  0  0  0  0  0
    1.8284   -6.1191   10.5558 C   0  0  0  0  0  0  0  0  0  0  0  0
    0.8656   -5.1455   10.5158 C   0  0  0  0  0  0  0  0  0  0  0  0
    2.6781    5.9315   18.5094 O   0  0  0  0  0  0  0  0  0  0  0  0
  1  2  1  0
  2  3  1  0
  2  4  1  0
  4  5  2  0
  5  6  1  0
  6  7  2  0
  7  8  1  0
  8  9  2  0
  7 10  1  0
 10 11  1  0
 11 12  1  0
 12 13  1  0
 13 14  1  0
 14 15  1  0
 13 16  1  0
 16 17  2  0
 17 18  1  0
 18 19  2  0
 19 20  1  0
 20 21  2  0
 21 22  1  0
 22 23  2  0
 23 24  1  0
 24 25  2  0
 19 26  1  0
 26 27  1  0
 27 28  2  0
 28 29  1  0
 29 30  2  0
 30 31  1  0
 31 32  2  0
  2 33  1  0
  9  4  1  0
 15 10  1  0
 25 16  1  0
 25 20  1  0
 32 27  1  0
M  END
$$$$
