
     RDKit          3D

 33 37  0  0  0  0  0  0  0  0999 V2000
    1.5108   -3.3481   22.6509 C   0  0  0  0  0  0  0  0  0  0  0  0
    2.7484   -2.9372   21.8815 C   0  0  0  0  0  0  0  0  0  0  0  0
    3.6361   -2.0521   22.7160 C   0  0  0  0  0  0  0  0  0  0  0  0
    2.3509   -2.2087   20.6340 C   0  0  0  0  0  0  0  0  0  0  0  0
    2.6526   -2.7405   19.3909 C   0  0  0  0  0  0  0  0  0  0  0  0
    2.3054   -2.1063   18.2759 N   0  0  0  0  0  0  0  0  0  0  0  0
    1.6439   -0.9166   18.2412 C   0  0  0  0  0  0  0  0  0  0  0  0
    1.3384   -0.3775   19.4709 C   0  0  0  0  0  0  0  0  0  0  0  0
    1.6887   -1.0177   20.6576 C   0  0  0  0  0  0  0  0  0  0  0  0
    1.3100   -0.2941   16.9960 N   0  0  0  0  0  0  0  0  0  0  0  0
    1.9643   -0.8063   15.8033 C   0  0  0  0  0  0  0  0  0  0  0  0
    1.8481    0.3232   14.7634 C   0  0  0  0  0  0  0  0  0  0  0  0
    0.3739    0.4066   14.5743 N   0  0  0  0  0  0  0  0  0  0  0  0
   -0.2888    1.0522   15.6532 C   0  0  0  0  0  0  0  0  0  0  0  0
    0.3634    0.7785   17.0079 C   0  0  0  0  0  0  0  0  0  0  0  0
   -0.0994   -0.2186   13.4068 C   0  0  0  0  0  0  0  0  0  0  0  0
   -1.3087   -0.8893   13.4661 N   0  0  0  0  0  0  0  0  0  0  0  0
   -1.8982   -1.4675   12.4906 N   0  0  0  0  0  0  0  0  0  0  0  0
   -1.3869   -1.4957   11.2222 C   0  0  0  0  0  0  0  0  0  0  0  0
   -0.1851   -0.8504   11.0756 C   0  0  0  0  0  0  0  0  0  0  0  0
    0.4044   -0.8203    9.8390 C   0  0  0  0  0  0  0  0  0  0  0  0
    1.6114   -0.1798    9.6709 C   0  0  0  0  0  0  0  0  0  0  0  0
    2.2455    0.4356   10.7192 C   0  0  0  0  0  0  0  0  0  0  0  0
    1.6763    0.4254   11.9785 C   0  0  0  0  0  0  0  0  0  0  0  0
    0.4672   -0.2121   12.1535 C   0  0  0  0  0  0  0  0  0  0  0  0
   -2.0861   -2.2280   10.1517 C   0  0  0  0  0  0  0  0  0  0  0  0
   -3.0813   -1.3958    9.4088 C   0  0  0  0  0  0  0  0  0  0  0  0
   -3.1086   -1.2435    8.0566 C   0  0  0  0  0  0  0  0  0  0  0  0
   -4.0879   -0.4543    7.4501 C   0  0  0  0  0  0  0  0  0  0  0  0
   -5.0601    0.2002    8.1776 C   0  0  0  0  0  0  0  0  0  0  0  0
   -5.0424    0.0542    9.5473 C   0  0  0  0  0  0  0  0  0  0  0  0
   -4.0787   -0.7219   10.1350 C   0  0  0  0  0  0  0  0  0  0  0  0
    3.4639   -4.0967   21.5877 O   0  0  0  0  0  0  0  0  0  0  0  0
  1  2  1  0
  2  3  1  0
  2  4  1  0
  4  5  2  0
  5  6  1  0
  6  7  2  0
  7  8  1  0
  8  9  2  0
  7 10  1  0
 10 11  1  0
 11 12  1  0
 12 13  1  0
 13 14  1  0
 14 15  1  0
 13 16  1  0
 16 17  2  0
 17 18  1  0
 18 19  2  0
 19 20  1  0
 20 21  2  0
 21 22  1  0
 22 23  2  0
 23 24  1  0
 24 25  2  0
 19 26  1  0
 26 27  1  0
 27 28  2  0
 28 29  1  0
 29 30  2  0
 30 31  1  0
 31 32  2  0
  2 33  1  0
  9  4  1  0
 15 10  1  0
 25 16  1  0
 25 20  1  0
 32 27  1  0
M  END
$$$$
