
     RDKit          3D

 33 37  0  0  0  0  0  0  0  0999 V2000
    4.7140    0.0617    3.7098 C   0  0  0  0  0  0  0  0  0  0  0  0
    3.7763    1.2449    3.8247 C   0  0  0  0  0  0  0  0  0  0  0  0
    4.4405    2.5105    3.3504 C   0  0  0  0  0  0  0  0  0  0  0  0
    3.3454    1.4132    5.2498 C   0  0  0  0  0  0  0  0  0  0  0  0
    4.1509    0.9551    6.2797 C   0  0  0  0  0  0  0  0  0  0  0  0
    3.7823    1.0983    7.5484 N   0  0  0  0  0  0  0  0  0  0  0  0
    2.6221    1.6864    7.9511 C   0  0  0  0  0  0  0  0  0  0  0  0
    1.8125    2.1459    6.9364 C   0  0  0  0  0  0  0  0  0  0  0  0
    2.1706    2.0107    5.5970 C   0  0  0  0  0  0  0  0  0  0  0  0
    2.2947    1.7975    9.3404 N   0  0  0  0  0  0  0  0  0  0  0  0
    0.9118    1.5542    9.7162 C   0  0  0  0  0  0  0  0  0  0  0  0
    0.7416    2.2325   11.0880 C   0  0  0  0  0  0  0  0  0  0  0  0
    1.6761    1.4393   11.9329 N   0  0  0  0  0  0  0  0  0  0  0  0
    3.0409    1.7673   11.7098 C   0  0  0  0  0  0  0  0  0  0  0  0
    3.3396    2.1358   10.2570 C   0  0  0  0  0  0  0  0  0  0  0  0
    1.0516    0.4742   12.7429 C   0  0  0  0  0  0  0  0  0  0  0  0
    1.8524   -0.3924   13.4665 N   0  0  0  0  0  0  0  0  0  0  0  0
    1.4472   -1.2909   14.2801 N   0  0  0  0  0  0  0  0  0  0  0  0
    0.1239   -1.5145   14.5445 C   0  0  0  0  0  0  0  0  0  0  0  0
   -0.7414   -0.6941   13.8660 C   0  0  0  0  0  0  0  0  0  0  0  0
   -2.0888   -0.8391   14.0690 C   0  0  0  0  0  0  0  0  0  0  0  0
   -2.9743   -0.0274   13.3964 C   0  0  0  0  0  0  0  0  0  0  0  0
   -2.5387    0.9327   12.5199 C   0  0  0  0  0  0  0  0  0  0  0  0
   -1.1862    1.1059   12.2945 C   0  0  0  0  0  0  0  0  0  0  0  0
   -0.2942    0.2983   12.9660 C   0  0  0  0  0  0  0  0  0  0  0  0
   -0.2827   -2.6040   15.4494 C   0  0  0  0  0  0  0  0  0  0  0  0
    0.6492   -2.8047   16.6010 C   0  0  0  0  0  0  0  0  0  0  0  0
    1.8448   -3.4507   16.5268 C   0  0  0  0  0  0  0  0  0  0  0  0
    2.6554   -3.5770   17.6567 C   0  0  0  0  0  0  0  0  0  0  0  0
    2.2921   -3.0631   18.8841 C   0  0  0  0  0  0  0  0  0  0  0  0
    1.0837   -2.4076   18.9719 C   0  0  0  0  0  0  0  0  0  0  0  0
    0.2940   -2.2875   17.8590 C   0  0  0  0  0  0  0  0  0  0  0  0
    2.6879    1.0003    2.9893 O   0  0  0  0  0  0  0  0  0  0  0  0
  1  2  1  0
  2  3  1  0
  2  4  1  0
  4  5  2  0
  5  6  1  0
  6  7  2  0
  7  8  1  0
  8  9  2  0
  7 10  1  0
 10 11  1  0
 11 12  1  0
 12 13  1  0
 13 14  1  0
 14 15  1  0
 13 16  1  0
 16 17  2  0
 17 18  1  0
 18 19  2  0
 19 20  1  0
 20 21  2  0
 21 22  1  0
 22 23  2  0
 23 24  1  0
 24 25  2  0
 19 26  1  0
 26 27  1  0
 27 28  2  0
 28 29  1  0
 29 30  2  0
 30 31  1  0
 31 32  2  0
  2 33  1  0
  9  4  1  0
 15 10  1  0
 25 16  1  0
 25 20  1  0
 32 27  1  0
M  END
$$$$
