
     RDKit          3D

 33 37  0  0  0  0  0  0  0  0999 V2000
    2.0165   -1.5275   22.4858 C   0  0  0  0  0  0  0  0  0  0  0  0
    2.9669   -0.8516   21.5202 C   0  0  0  0  0  0  0  0  0  0  0  0
    3.3346    0.5282   21.9985 C   0  0  0  0  0  0  0  0  0  0  0  0
    2.3312   -0.7561   20.1669 C   0  0  0  0  0  0  0  0  0  0  0  0
    2.0142    0.4820   19.6322 C   0  0  0  0  0  0  0  0  0  0  0  0
    1.4511    0.5824   18.4327 N   0  0  0  0  0  0  0  0  0  0  0  0
    1.1401   -0.4781   17.6372 C   0  0  0  0  0  0  0  0  0  0  0  0
    1.4503   -1.7147   18.1578 C   0  0  0  0  0  0  0  0  0  0  0  0
    2.0408   -1.8530   19.4119 C   0  0  0  0  0  0  0  0  0  0  0  0
    0.5286   -0.2860   16.3572 N   0  0  0  0  0  0  0  0  0  0  0  0
    1.0810    0.7577   15.5095 C   0  0  0  0  0  0  0  0  0  0  0  0
   -0.0339    1.0899   14.5008 C   0  0  0  0  0  0  0  0  0  0  0  0
   -0.1600   -0.1947   13.7592 N   0  0  0  0  0  0  0  0  0  0  0  0
   -0.8441   -1.1977   14.4981 C   0  0  0  0  0  0  0  0  0  0  0  0
   -0.5731   -1.1260   16.0004 C   0  0  0  0  0  0  0  0  0  0  0  0
    0.4697   -0.2050   12.5018 C   0  0  0  0  0  0  0  0  0  0  0  0
    1.8393   -0.0108   12.4525 N   0  0  0  0  0  0  0  0  0  0  0  0
    2.5667   -0.0369   11.4019 N   0  0  0  0  0  0  0  0  0  0  0  0
    2.0618   -0.2678   10.1518 C   0  0  0  0  0  0  0  0  0  0  0  0
    0.7058   -0.4720   10.1114 C   0  0  0  0  0  0  0  0  0  0  0  0
    0.1082   -0.7165    8.9028 C   0  0  0  0  0  0  0  0  0  0  0  0
   -1.2517   -0.9220    8.8400 C   0  0  0  0  0  0  0  0  0  0  0  0
   -2.0318   -0.8886    9.9670 C   0  0  0  0  0  0  0  0  0  0  0  0
   -1.4595   -0.6468   11.2016 C   0  0  0  0  0  0  0  0  0  0  0  0
   -0.0987   -0.4424   11.2720 C   0  0  0  0  0  0  0  0  0  0  0  0
    2.9435   -0.2286    8.9718 C   0  0  0  0  0  0  0  0  0  0  0  0
    2.9755    1.1028    8.2927 C   0  0  0  0  0  0  0  0  0  0  0  0
    3.1307    2.2947    8.9311 C   0  0  0  0  0  0  0  0  0  0  0  0
    3.1620    3.4890    8.2083 C   0  0  0  0  0  0  0  0  0  0  0  0
    3.0389    3.5213    6.8348 C   0  0  0  0  0  0  0  0  0  0  0  0
    2.8805    2.3210    6.1774 C   0  0  0  0  0  0  0  0  0  0  0  0
    2.8511    1.1536    6.8934 C   0  0  0  0  0  0  0  0  0  0  0  0
    4.1353   -1.6105   21.4813 O   0  0  0  0  0  0  0  0  0  0  0  0
  1  2  1  0
  2  3  1  0
  2  4  1  0
  4  5  2  0
  5  6  1  0
  6  7  2  0
  7  8  1  0
  8  9  2  0
  7 10  1  0
 10 11  1  0
 11 12  1  0
 12 13  1  0
 13 14  1  0
 14 15  1  0
 13 16  1  0
 16 17  2  0
 17 18  1  0
 18 19  2  0
 19 20  1  0
 20 21  2  0
 21 22  1  0
 22 23  2  0
 23 24  1  0
 24 25  2  0
 19 26  1  0
 26 27  1  0
 27 28  2  0
 28 29  1  0
 29 30  2  0
 30 31  1  0
 31 32  2  0
  2 33  1  0
  9  4  1  0
 15 10  1  0
 25 16  1  0
 25 20  1  0
 32 27  1  0
M  END
$$$$
