
     RDKit          3D

 33 37  0  0  0  0  0  0  0  0999 V2000
    1.8601    0.2699   20.8369 C   0  0  0  0  0  0  0  0  0  0  0  0
    1.6155    1.4057   19.8661 C   0  0  0  0  0  0  0  0  0  0  0  0
    0.5117    2.3068   20.3536 C   0  0  0  0  0  0  0  0  0  0  0  0
    1.2499    0.8536   18.5221 C   0  0  0  0  0  0  0  0  0  0  0  0
    0.0434    1.1957   17.9334 C   0  0  0  0  0  0  0  0  0  0  0  0
   -0.2939    0.7147   16.7414 N   0  0  0  0  0  0  0  0  0  0  0  0
    0.4799   -0.1297   16.0051 C   0  0  0  0  0  0  0  0  0  0  0  0
    1.6821   -0.4775   16.5798 C   0  0  0  0  0  0  0  0  0  0  0  0
    2.0643    0.0098   17.8276 C   0  0  0  0  0  0  0  0  0  0  0  0
    0.0417   -0.6084   14.7291 N   0  0  0  0  0  0  0  0  0  0  0  0
   -0.5588    0.3618   13.8286 C   0  0  0  0  0  0  0  0  0  0  0  0
   -1.3786   -0.4717   12.8266 C   0  0  0  0  0  0  0  0  0  0  0  0
   -0.3118   -1.2524   12.1421 N   0  0  0  0  0  0  0  0  0  0  0  0
    0.1903   -2.3201   12.9346 C   0  0  0  0  0  0  0  0  0  0  0  0
    0.2232   -1.9950   14.4276 C   0  0  0  0  0  0  0  0  0  0  0  0
    0.0484   -0.7592   10.8753 C   0  0  0  0  0  0  0  0  0  0  0  0
    1.3466   -0.9589   10.4386 N   0  0  0  0  0  0  0  0  0  0  0  0
    1.8202   -0.6167    9.3019 N   0  0  0  0  0  0  0  0  0  0  0  0
    1.0746    0.0123    8.3430 C   0  0  0  0  0  0  0  0  0  0  0  0
   -0.2298    0.2486    8.6964 C   0  0  0  0  0  0  0  0  0  0  0  0
   -1.0574    0.8704    7.7986 C   0  0  0  0  0  0  0  0  0  0  0  0
   -2.3693    1.1187    8.1342 C   0  0  0  0  0  0  0  0  0  0  0  0
   -2.8749    0.7558    9.3559 C   0  0  0  0  0  0  0  0  0  0  0  0
   -2.0670    0.1250   10.2829 C   0  0  0  0  0  0  0  0  0  0  0  0
   -0.7534   -0.1285    9.9528 C   0  0  0  0  0  0  0  0  0  0  0  0
    1.6931    0.4332    7.0735 C   0  0  0  0  0  0  0  0  0  0  0  0
    2.7501    1.4772    7.2400 C   0  0  0  0  0  0  0  0  0  0  0  0
    3.7196    1.4530    8.1948 C   0  0  0  0  0  0  0  0  0  0  0  0
    4.6748    2.4691    8.2633 C   0  0  0  0  0  0  0  0  0  0  0  0
    4.6841    3.5310    7.3829 C   0  0  0  0  0  0  0  0  0  0  0  0
    3.7071    3.5669    6.4123 C   0  0  0  0  0  0  0  0  0  0  0  0
    2.7736    2.5662    6.3513 C   0  0  0  0  0  0  0  0  0  0  0  0
    2.7835    2.1637   19.8044 O   0  0  0  0  0  0  0  0  0  0  0  0
  1  2  1  0
  2  3  1  0
  2  4  1  0
  4  5  2  0
  5  6  1  0
  6  7  2  0
  7  8  1  0
  8  9  2  0
  7 10  1  0
 10 11  1  0
 11 12  1  0
 12 13  1  0
 13 14  1  0
 14 15  1  0
 13 16  1  0
 16 17  2  0
 17 18  1  0
 18 19  2  0
 19 20  1  0
 20 21  2  0
 21 22  1  0
 22 23  2  0
 23 24  1  0
 24 25  2  0
 19 26  1  0
 26 27  1  0
 27 28  2  0
 28 29  1  0
 29 30  2  0
 30 31  1  0
 31 32  2  0
  2 33  1  0
  9  4  1  0
 15 10  1  0
 25 16  1  0
 25 20  1  0
 32 27  1  0
M  END
$$$$
