
     RDKit          3D

 33 37  0  0  0  0  0  0  0  0999 V2000
    4.2313    3.5475    5.8823 C   0  0  0  0  0  0  0  0  0  0  0  0
    3.8623    2.0791    5.8852 C   0  0  0  0  0  0  0  0  0  0  0  0
    3.0786    1.7150    4.6518 C   0  0  0  0  0  0  0  0  0  0  0  0
    3.0484    1.7637    7.1029 C   0  0  0  0  0  0  0  0  0  0  0  0
    1.8451    2.4137    7.3239 C   0  0  0  0  0  0  0  0  0  0  0  0
    1.1120    2.1436    8.3988 N   0  0  0  0  0  0  0  0  0  0  0  0
    1.4535    1.2367    9.3554 C   0  0  0  0  0  0  0  0  0  0  0  0
    2.6479    0.5838    9.1472 C   0  0  0  0  0  0  0  0  0  0  0  0
    3.4390    0.8447    8.0306 C   0  0  0  0  0  0  0  0  0  0  0  0
    0.6098    1.0067   10.4889 N   0  0  0  0  0  0  0  0  0  0  0  0
    0.8176   -0.2268   11.2294 C   0  0  0  0  0  0  0  0  0  0  0  0
   -0.4929   -0.4574   12.0041 C   0  0  0  0  0  0  0  0  0  0  0  0
   -0.5141    0.7198   12.9151 N   0  0  0  0  0  0  0  0  0  0  0  0
   -0.8752    1.9259   12.2557 C   0  0  0  0  0  0  0  0  0  0  0  0
   -0.3706    1.9962   10.8148 C   0  0  0  0  0  0  0  0  0  0  0  0
   -0.1147    0.4418   14.2345 C   0  0  0  0  0  0  0  0  0  0  0  0
    0.0101    1.4994   15.1187 N   0  0  0  0  0  0  0  0  0  0  0  0
    0.3166    1.4145   16.3566 N   0  0  0  0  0  0  0  0  0  0  0  0
    0.5685    0.2242   16.9817 C   0  0  0  0  0  0  0  0  0  0  0  0
    0.4653   -0.8794   16.1734 C   0  0  0  0  0  0  0  0  0  0  0  0
    0.6951   -2.1186   16.7112 C   0  0  0  0  0  0  0  0  0  0  0  0
    0.5987   -3.2389   15.9167 C   0  0  0  0  0  0  0  0  0  0  0  0
    0.2749   -3.1462   14.5877 C   0  0  0  0  0  0  0  0  0  0  0  0
    0.0349   -1.9114   14.0152 C   0  0  0  0  0  0  0  0  0  0  0  0
    0.1275   -0.7861   14.8051 C   0  0  0  0  0  0  0  0  0  0  0  0
    0.9732    0.1962   18.3983 C   0  0  0  0  0  0  0  0  0  0  0  0
    1.0846    1.5531   19.0158 C   0  0  0  0  0  0  0  0  0  0  0  0
    0.0509    2.2345   19.5810 C   0  0  0  0  0  0  0  0  0  0  0  0
    0.2554    3.4946   20.1467 C   0  0  0  0  0  0  0  0  0  0  0  0
    1.4934    4.1028   20.1606 C   0  0  0  0  0  0  0  0  0  0  0  0
    2.5475    3.4231   19.5908 C   0  0  0  0  0  0  0  0  0  0  0  0
    2.3391    2.1872   19.0381 C   0  0  0  0  0  0  0  0  0  0  0  0
    5.0489    1.3483    5.8628 O   0  0  0  0  0  0  0  0  0  0  0  0
  1  2  1  0
  2  3  1  0
  2  4  1  0
  4  5  2  0
  5  6  1  0
  6  7  2  0
  7  8  1  0
  8  9  2  0
  7 10  1  0
 10 11  1  0
 11 12  1  0
 12 13  1  0
 13 14  1  0
 14 15  1  0
 13 16  1  0
 16 17  2  0
 17 18  1  0
 18 19  2  0
 19 20  1  0
 20 21  2  0
 21 22  1  0
 22 23  2  0
 23 24  1  0
 24 25  2  0
 19 26  1  0
 26 27  1  0
 27 28  2  0
 28 29  1  0
 29 30  2  0
 30 31  1  0
 31 32  2  0
  2 33  1  0
  9  4  1  0
 15 10  1  0
 25 16  1  0
 25 20  1  0
 32 27  1  0
M  END
$$$$
