
     RDKit          3D

 33 37  0  0  0  0  0  0  0  0999 V2000
   -5.6652    0.1462    5.4332 C   0  0  0  0  0  0  0  0  0  0  0  0
   -5.2806   -1.0213    6.3172 C   0  0  0  0  0  0  0  0  0  0  0  0
   -6.3790   -1.3449    7.2954 C   0  0  0  0  0  0  0  0  0  0  0  0
   -4.0255   -0.6964    7.0681 C   0  0  0  0  0  0  0  0  0  0  0  0
   -4.0947   -0.0774    8.3056 C   0  0  0  0  0  0  0  0  0  0  0  0
   -2.9901    0.2159    8.9836 N   0  0  0  0  0  0  0  0  0  0  0  0
   -1.7272   -0.0508    8.5500 C   0  0  0  0  0  0  0  0  0  0  0  0
   -1.6450   -0.6660    7.3208 C   0  0  0  0  0  0  0  0  0  0  0  0
   -2.7842   -0.9863    6.5857 C   0  0  0  0  0  0  0  0  0  0  0  0
   -0.5861    0.3023    9.3392 N   0  0  0  0  0  0  0  0  0  0  0  0
   -0.7987    1.2437   10.4262 C   0  0  0  0  0  0  0  0  0  0  0  0
    0.5936    1.8248   10.7341 C   0  0  0  0  0  0  0  0  0  0  0  0
    1.3256    0.6168   11.2042 N   0  0  0  0  0  0  0  0  0  0  0  0
    1.6969   -0.2549   10.1448 C   0  0  0  0  0  0  0  0  0  0  0  0
    0.6740   -0.2895    9.0099 C   0  0  0  0  0  0  0  0  0  0  0  0
    1.4595    0.5244   12.6011 C   0  0  0  0  0  0  0  0  0  0  0  0
    2.0570   -0.6070   13.1293 N   0  0  0  0  0  0  0  0  0  0  0  0
    2.2952   -0.8256   14.3658 N   0  0  0  0  0  0  0  0  0  0  0  0
    1.9767    0.0641   15.3546 C   0  0  0  0  0  0  0  0  0  0  0  0
    1.3788    1.2180   14.9149 C   0  0  0  0  0  0  0  0  0  0  0  0
    1.0268    2.1732   15.8321 C   0  0  0  0  0  0  0  0  0  0  0  0
    0.4238    3.3373   15.4119 C   0  0  0  0  0  0  0  0  0  0  0  0
    0.1640    3.5686   14.0857 C   0  0  0  0  0  0  0  0  0  0  0  0
    0.5086    2.6263   13.1352 C   0  0  0  0  0  0  0  0  0  0  0  0
    1.1144    1.4597   13.5486 C   0  0  0  0  0  0  0  0  0  0  0  0
    2.2249   -0.2703   16.7680 C   0  0  0  0  0  0  0  0  0  0  0  0
    1.7322   -1.6270   17.1573 C   0  0  0  0  0  0  0  0  0  0  0  0
    2.5203   -2.6323   17.6269 C   0  0  0  0  0  0  0  0  0  0  0  0
    1.9658   -3.8646   17.9787 C   0  0  0  0  0  0  0  0  0  0  0  0
    0.6150   -4.1217   17.8695 C   0  0  0  0  0  0  0  0  0  0  0  0
   -0.1930   -3.1120   17.3947 C   0  0  0  0  0  0  0  0  0  0  0  0
    0.3584   -1.9057   17.0519 C   0  0  0  0  0  0  0  0  0  0  0  0
   -5.1078   -2.1322    5.4934 O   0  0  0  0  0  0  0  0  0  0  0  0
  1  2  1  0
  2  3  1  0
  2  4  1  0
  4  5  2  0
  5  6  1  0
  6  7  2  0
  7  8  1  0
  8  9  2  0
  7 10  1  0
 10 11  1  0
 11 12  1  0
 12 13  1  0
 13 14  1  0
 14 15  1  0
 13 16  1  0
 16 17  2  0
 17 18  1  0
 18 19  2  0
 19 20  1  0
 20 21  2  0
 21 22  1  0
 22 23  2  0
 23 24  1  0
 24 25  2  0
 19 26  1  0
 26 27  1  0
 27 28  2  0
 28 29  1  0
 29 30  2  0
 30 31  1  0
 31 32  2  0
  2 33  1  0
  9  4  1  0
 15 10  1  0
 25 16  1  0
 25 20  1  0
 32 27  1  0
M  END
$$$$
