
     RDKit          3D

 33 37  0  0  0  0  0  0  0  0999 V2000
   -0.1214   -1.2750   21.7334 C   0  0  0  0  0  0  0  0  0  0  0  0
    0.5787    0.0668   21.6909 C   0  0  0  0  0  0  0  0  0  0  0  0
   -0.2412    1.1276   22.3769 C   0  0  0  0  0  0  0  0  0  0  0  0
    0.8200    0.4676   20.2675 C   0  0  0  0  0  0  0  0  0  0  0  0
    2.1057    0.4644   19.7515 C   0  0  0  0  0  0  0  0  0  0  0  0
    2.3348    0.8163   18.4907 N   0  0  0  0  0  0  0  0  0  0  0  0
    1.3690    1.2006   17.6112 C   0  0  0  0  0  0  0  0  0  0  0  0
    0.0864    1.2080   18.1123 C   0  0  0  0  0  0  0  0  0  0  0  0
   -0.1863    0.8447   19.4292 C   0  0  0  0  0  0  0  0  0  0  0  0
    1.6990    1.5705   16.2681 N   0  0  0  0  0  0  0  0  0  0  0  0
    2.6486    0.7254   15.5631 C   0  0  0  0  0  0  0  0  0  0  0  0
    3.1992    1.6019   14.4232 C   0  0  0  0  0  0  0  0  0  0  0  0
    1.9766    1.8346   13.6063 N   0  0  0  0  0  0  0  0  0  0  0  0
    1.0932    2.7845   14.1871 C   0  0  0  0  0  0  0  0  0  0  0  0
    1.0778    2.7341   15.7144 C   0  0  0  0  0  0  0  0  0  0  0  0
    1.8860    1.0344   12.4534 C   0  0  0  0  0  0  0  0  0  0  0  0
    2.2825   -0.2889   12.5407 N   0  0  0  0  0  0  0  0  0  0  0  0
    2.2211   -1.1571   11.6048 N   0  0  0  0  0  0  0  0  0  0  0  0
    1.7387   -0.8741   10.3565 C   0  0  0  0  0  0  0  0  0  0  0  0
    1.3217    0.4216   10.1847 C   0  0  0  0  0  0  0  0  0  0  0  0
    0.8176    0.7998    8.9679 C   0  0  0  0  0  0  0  0  0  0  0  0
    0.3956    2.0958    8.7740 C   0  0  0  0  0  0  0  0  0  0  0  0
    0.4668    3.0277    9.7771 C   0  0  0  0  0  0  0  0  0  0  0  0
    0.9681    2.6778   11.0166 C   0  0  0  0  0  0  0  0  0  0  0  0
    1.3903    1.3818   11.2183 C   0  0  0  0  0  0  0  0  0  0  0  0
    1.7467   -1.9034    9.3022 C   0  0  0  0  0  0  0  0  0  0  0  0
    2.5545   -3.1118    9.6518 C   0  0  0  0  0  0  0  0  0  0  0  0
    2.0456   -4.3636    9.8144 C   0  0  0  0  0  0  0  0  0  0  0  0
    2.8832   -5.4358   10.1281 C   0  0  0  0  0  0  0  0  0  0  0  0
    4.2449   -5.2838   10.2870 C   0  0  0  0  0  0  0  0  0  0  0  0
    4.7717   -4.0212   10.1256 C   0  0  0  0  0  0  0  0  0  0  0  0
    3.9436   -2.9743    9.8176 C   0  0  0  0  0  0  0  0  0  0  0  0
    1.7756   -0.0621   22.3933 O   0  0  0  0  0  0  0  0  0  0  0  0
  1  2  1  0
  2  3  1  0
  2  4  1  0
  4  5  2  0
  5  6  1  0
  6  7  2  0
  7  8  1  0
  8  9  2  0
  7 10  1  0
 10 11  1  0
 11 12  1  0
 12 13  1  0
 13 14  1  0
 14 15  1  0
 13 16  1  0
 16 17  2  0
 17 18  1  0
 18 19  2  0
 19 20  1  0
 20 21  2  0
 21 22  1  0
 22 23  2  0
 23 24  1  0
 24 25  2  0
 19 26  1  0
 26 27  1  0
 27 28  2  0
 28 29  1  0
 29 30  2  0
 30 31  1  0
 31 32  2  0
  2 33  1  0
  9  4  1  0
 15 10  1  0
 25 16  1  0
 25 20  1  0
 32 27  1  0
M  END
$$$$
