
     RDKit          3D

 33 37  0  0  0  0  0  0  0  0999 V2000
    1.5641   -7.3380   19.4342 C   0  0  0  0  0  0  0  0  0  0  0  0
    1.3948   -5.8745   19.7838 C   0  0  0  0  0  0  0  0  0  0  0  0
   -0.0099   -5.5866   20.2442 C   0  0  0  0  0  0  0  0  0  0  0  0
    1.7097   -5.0283   18.5881 C   0  0  0  0  0  0  0  0  0  0  0  0
    0.6902   -4.4001   17.8915 C   0  0  0  0  0  0  0  0  0  0  0  0
    0.9545   -3.6457   16.8299 N   0  0  0  0  0  0  0  0  0  0  0  0
    2.2037   -3.4210   16.3370 C   0  0  0  0  0  0  0  0  0  0  0  0
    3.2260   -4.0404   17.0209 C   0  0  0  0  0  0  0  0  0  0  0  0
    2.9816   -4.8374   18.1370 C   0  0  0  0  0  0  0  0  0  0  0  0
    2.4046   -2.5979   15.1830 N   0  0  0  0  0  0  0  0  0  0  0  0
    1.2431   -2.3287   14.3516 C   0  0  0  0  0  0  0  0  0  0  0  0
    1.8144   -1.9105   12.9843 C   0  0  0  0  0  0  0  0  0  0  0  0
    2.5311   -0.6525   13.3306 N   0  0  0  0  0  0  0  0  0  0  0  0
    3.7608   -0.8817   14.0053 C   0  0  0  0  0  0  0  0  0  0  0  0
    3.7210   -2.0992   14.9282 C   0  0  0  0  0  0  0  0  0  0  0  0
    1.8398    0.5238   12.9899 C   0  0  0  0  0  0  0  0  0  0  0  0
    2.0155    1.6419   13.7867 N   0  0  0  0  0  0  0  0  0  0  0  0
    1.5003    2.7951   13.5909 N   0  0  0  0  0  0  0  0  0  0  0  0
    0.6818    3.0753   12.5313 C   0  0  0  0  0  0  0  0  0  0  0  0
    0.4554    2.0170   11.6881 C   0  0  0  0  0  0  0  0  0  0  0  0
   -0.3488    2.2017   10.5941 C   0  0  0  0  0  0  0  0  0  0  0  0
   -0.5905    1.1522    9.7365 C   0  0  0  0  0  0  0  0  0  0  0  0
   -0.0415   -0.0858    9.9503 C   0  0  0  0  0  0  0  0  0  0  0  0
    0.7758   -0.3044   11.0432 C   0  0  0  0  0  0  0  0  0  0  0  0
    1.0237    0.7422   11.9045 C   0  0  0  0  0  0  0  0  0  0  0  0
    0.0723    4.4095   12.3915 C   0  0  0  0  0  0  0  0  0  0  0  0
    0.8214    5.4876   13.1066 C   0  0  0  0  0  0  0  0  0  0  0  0
    1.5344    6.4724   12.4949 C   0  0  0  0  0  0  0  0  0  0  0  0
    2.1917    7.4466   13.2489 C   0  0  0  0  0  0  0  0  0  0  0  0
    2.1533    7.4601   14.6276 C   0  0  0  0  0  0  0  0  0  0  0  0
    1.4354    6.4679   15.2582 C   0  0  0  0  0  0  0  0  0  0  0  0
    0.7929    5.5158   14.5118 C   0  0  0  0  0  0  0  0  0  0  0  0
    2.2531   -5.5948   20.8456 O   0  0  0  0  0  0  0  0  0  0  0  0
  1  2  1  0
  2  3  1  0
  2  4  1  0
  4  5  2  0
  5  6  1  0
  6  7  2  0
  7  8  1  0
  8  9  2  0
  7 10  1  0
 10 11  1  0
 11 12  1  0
 12 13  1  0
 13 14  1  0
 14 15  1  0
 13 16  1  0
 16 17  2  0
 17 18  1  0
 18 19  2  0
 19 20  1  0
 20 21  2  0
 21 22  1  0
 22 23  2  0
 23 24  1  0
 24 25  2  0
 19 26  1  0
 26 27  1  0
 27 28  2  0
 28 29  1  0
 29 30  2  0
 30 31  1  0
 31 32  2  0
  2 33  1  0
  9  4  1  0
 15 10  1  0
 25 16  1  0
 25 20  1  0
 32 27  1  0
M  END
$$$$
