
     RDKit          3D

 33 37  0  0  0  0  0  0  0  0999 V2000
   -1.1723    2.5731    1.2668 C   0  0  0  0  0  0  0  0  0  0  0  0
    0.3053    2.8969    1.2019 C   0  0  0  0  0  0  0  0  0  0  0  0
    0.9525    2.2379    0.0123 C   0  0  0  0  0  0  0  0  0  0  0  0
    0.9812    2.4333    2.4561 C   0  0  0  0  0  0  0  0  0  0  0  0
    0.3191    1.5893    3.3328 C   0  0  0  0  0  0  0  0  0  0  0  0
    0.9062    1.1692    4.4486 N   0  0  0  0  0  0  0  0  0  0  0  0
    2.1679    1.5106    4.8300 C   0  0  0  0  0  0  0  0  0  0  0  0
    2.8366    2.3496    3.9667 C   0  0  0  0  0  0  0  0  0  0  0  0
    2.2486    2.8073    2.7896 C   0  0  0  0  0  0  0  0  0  0  0  0
    2.7277    1.0188    6.0524 N   0  0  0  0  0  0  0  0  0  0  0  0
    2.8195    1.9536    7.1618 C   0  0  0  0  0  0  0  0  0  0  0  0
    3.8856    1.3607    8.1013 C   0  0  0  0  0  0  0  0  0  0  0  0
    3.2394    0.0876    8.5228 N   0  0  0  0  0  0  0  0  0  0  0  0
    3.2749   -0.9136    7.5146 C   0  0  0  0  0  0  0  0  0  0  0  0
    3.1539   -0.3459    6.1009 C   0  0  0  0  0  0  0  0  0  0  0  0
    2.6597    0.1253    9.8036 C   0  0  0  0  0  0  0  0  0  0  0  0
    2.7358    1.3052   10.5234 N   0  0  0  0  0  0  0  0  0  0  0  0
    2.2241    1.5196   11.6748 N   0  0  0  0  0  0  0  0  0  0  0  0
    1.5132    0.5743   12.3619 C   0  0  0  0  0  0  0  0  0  0  0  0
    1.3892   -0.6296   11.7159 C   0  0  0  0  0  0  0  0  0  0  0  0
    0.6891   -1.6387   12.3234 C   0  0  0  0  0  0  0  0  0  0  0  0
    0.5547   -2.8553   11.6931 C   0  0  0  0  0  0  0  0  0  0  0  0
    1.1084   -3.0859   10.4603 C   0  0  0  0  0  0  0  0  0  0  0  0
    1.8187   -2.0883    9.8197 C   0  0  0  0  0  0  0  0  0  0  0  0
    1.9553   -0.8674   10.4439 C   0  0  0  0  0  0  0  0  0  0  0  0
    0.9967    0.8636   13.7112 C   0  0  0  0  0  0  0  0  0  0  0  0
    1.8999    1.7349   14.5236 C   0  0  0  0  0  0  0  0  0  0  0  0
    1.5790    2.9794   14.9715 C   0  0  0  0  0  0  0  0  0  0  0  0
    2.4859    3.7144   15.7377 C   0  0  0  0  0  0  0  0  0  0  0  0
    3.7314    3.2258   16.0732 C   0  0  0  0  0  0  0  0  0  0  0  0
    4.0679    1.9674   15.6250 C   0  0  0  0  0  0  0  0  0  0  0  0
    3.1728    1.2523   14.8741 C   0  0  0  0  0  0  0  0  0  0  0  0
    0.4259    4.2758    1.0385 O   0  0  0  0  0  0  0  0  0  0  0  0
  1  2  1  0
  2  3  1  0
  2  4  1  0
  4  5  2  0
  5  6  1  0
  6  7  2  0
  7  8  1  0
  8  9  2  0
  7 10  1  0
 10 11  1  0
 11 12  1  0
 12 13  1  0
 13 14  1  0
 14 15  1  0
 13 16  1  0
 16 17  2  0
 17 18  1  0
 18 19  2  0
 19 20  1  0
 20 21  2  0
 21 22  1  0
 22 23  2  0
 23 24  1  0
 24 25  2  0
 19 26  1  0
 26 27  1  0
 27 28  2  0
 28 29  1  0
 29 30  2  0
 30 31  1  0
 31 32  2  0
  2 33  1  0
  9  4  1  0
 15 10  1  0
 25 16  1  0
 25 20  1  0
 32 27  1  0
M  END
$$$$
