
     RDKit          3D

 33 37  0  0  0  0  0  0  0  0999 V2000
   -0.9195   -2.1534   21.0070 C   0  0  0  0  0  0  0  0  0  0  0  0
    0.3865   -1.3911   20.9320 C   0  0  0  0  0  0  0  0  0  0  0  0
    0.3552   -0.1743   21.8188 C   0  0  0  0  0  0  0  0  0  0  0  0
    0.6465   -0.9695   19.5180 C   0  0  0  0  0  0  0  0  0  0  0  0
    0.0342    0.1624   19.0049 C   0  0  0  0  0  0  0  0  0  0  0  0
    0.2561    0.5490   17.7530 N   0  0  0  0  0  0  0  0  0  0  0  0
    1.0751   -0.1006   16.8805 C   0  0  0  0  0  0  0  0  0  0  0  0
    1.6897   -1.2277   17.3787 C   0  0  0  0  0  0  0  0  0  0  0  0
    1.4775   -1.6589   18.6863 C   0  0  0  0  0  0  0  0  0  0  0  0
    1.2575    0.3782   15.5437 N   0  0  0  0  0  0  0  0  0  0  0  0
    1.6284   -0.6003   14.5348 C   0  0  0  0  0  0  0  0  0  0  0  0
    2.2519    0.2183   13.3894 C   0  0  0  0  0  0  0  0  0  0  0  0
    1.0934    1.0393   12.9421 N   0  0  0  0  0  0  0  0  0  0  0  0
    0.7998    2.1132   13.8255 C   0  0  0  0  0  0  0  0  0  0  0  0
    1.0634    1.7730   15.2920 C   0  0  0  0  0  0  0  0  0  0  0  0
    0.4650    0.5714   11.7743 C   0  0  0  0  0  0  0  0  0  0  0  0
   -0.8526    0.1560   11.8599 N   0  0  0  0  0  0  0  0  0  0  0  0
   -1.5790   -0.2505   10.8900 N   0  0  0  0  0  0  0  0  0  0  0  0
   -1.1262   -0.3280    9.6016 C   0  0  0  0  0  0  0  0  0  0  0  0
    0.1760    0.0678    9.4282 C   0  0  0  0  0  0  0  0  0  0  0  0
    0.7181    0.0302    8.1704 C   0  0  0  0  0  0  0  0  0  0  0  0
    2.0237    0.4212    7.9751 C   0  0  0  0  0  0  0  0  0  0  0  0
    2.8036    0.8521    9.0171 C   0  0  0  0  0  0  0  0  0  0  0  0
    2.2861    0.9040   10.2976 C   0  0  0  0  0  0  0  0  0  0  0  0
    0.9794    0.5162   10.4999 C   0  0  0  0  0  0  0  0  0  0  0  0
   -1.9943   -0.8592    8.5361 C   0  0  0  0  0  0  0  0  0  0  0  0
   -3.4434   -0.8861    8.9026 C   0  0  0  0  0  0  0  0  0  0  0  0
   -4.2948    0.1679    8.7745 C   0  0  0  0  0  0  0  0  0  0  0  0
   -5.6389    0.0429    9.1314 C   0  0  0  0  0  0  0  0  0  0  0  0
   -6.1630   -1.1342    9.6240 C   0  0  0  0  0  0  0  0  0  0  0  0
   -5.3107   -2.2080    9.7589 C   0  0  0  0  0  0  0  0  0  0  0  0
   -3.9935   -2.0777    9.4063 C   0  0  0  0  0  0  0  0  0  0  0  0
    1.3914   -2.2330   21.4051 O   0  0  0  0  0  0  0  0  0  0  0  0
  1  2  1  0
  2  3  1  0
  2  4  1  0
  4  5  2  0
  5  6  1  0
  6  7  2  0
  7  8  1  0
  8  9  2  0
  7 10  1  0
 10 11  1  0
 11 12  1  0
 12 13  1  0
 13 14  1  0
 14 15  1  0
 13 16  1  0
 16 17  2  0
 17 18  1  0
 18 19  2  0
 19 20  1  0
 20 21  2  0
 21 22  1  0
 22 23  2  0
 23 24  1  0
 24 25  2  0
 19 26  1  0
 26 27  1  0
 27 28  2  0
 28 29  1  0
 29 30  2  0
 30 31  1  0
 31 32  2  0
  2 33  1  0
  9  4  1  0
 15 10  1  0
 25 16  1  0
 25 20  1  0
 32 27  1  0
M  END
$$$$
