
     RDKit          3D

 33 37  0  0  0  0  0  0  0  0999 V2000
    0.7965   -3.1637   21.4586 C   0  0  0  0  0  0  0  0  0  0  0  0
    0.5517   -1.6767   21.6044 C   0  0  0  0  0  0  0  0  0  0  0  0
   -0.7421   -1.4090   22.3271 C   0  0  0  0  0  0  0  0  0  0  0  0
    0.5074   -1.0354   20.2510 C   0  0  0  0  0  0  0  0  0  0  0  0
    1.6758   -0.5959   19.6501 C   0  0  0  0  0  0  0  0  0  0  0  0
    1.6521   -0.0262   18.4498 N   0  0  0  0  0  0  0  0  0  0  0  0
    0.5232    0.1760   17.7159 C   0  0  0  0  0  0  0  0  0  0  0  0
   -0.6451   -0.2566   18.3026 C   0  0  0  0  0  0  0  0  0  0  0  0
   -0.6534   -0.8572   19.5595 C   0  0  0  0  0  0  0  0  0  0  0  0
    0.5814    0.8030   16.4302 N   0  0  0  0  0  0  0  0  0  0  0  0
    1.8441    0.7287   15.7139 C   0  0  0  0  0  0  0  0  0  0  0  0
    1.7922    1.8735   14.6856 C   0  0  0  0  0  0  0  0  0  0  0  0
    0.6574    1.4488   13.8207 N   0  0  0  0  0  0  0  0  0  0  0  0
   -0.6112    1.6590   14.4260 C   0  0  0  0  0  0  0  0  0  0  0  0
   -0.5950    1.4530   15.9402 C   0  0  0  0  0  0  0  0  0  0  0  0
    1.0425    0.8629   12.6016 C   0  0  0  0  0  0  0  0  0  0  0  0
    1.8649   -0.2498   12.6394 N   0  0  0  0  0  0  0  0  0  0  0  0
    2.2665   -0.9245   11.6310 N   0  0  0  0  0  0  0  0  0  0  0  0
    1.9204   -0.6178   10.3437 C   0  0  0  0  0  0  0  0  0  0  0  0
    1.1024    0.4763   10.2166 C   0  0  0  0  0  0  0  0  0  0  0  0
    0.6973    0.8590    8.9648 C   0  0  0  0  0  0  0  0  0  0  0  0
   -0.1219    1.9553    8.8152 C   0  0  0  0  0  0  0  0  0  0  0  0
   -0.5479    2.6815    9.8973 C   0  0  0  0  0  0  0  0  0  0  0  0
   -0.1591    2.3204   11.1734 C   0  0  0  0  0  0  0  0  0  0  0  0
    0.6590    1.2228   11.3307 C   0  0  0  0  0  0  0  0  0  0  0  0
    2.4622   -1.3999    9.2186 C   0  0  0  0  0  0  0  0  0  0  0  0
    3.3433   -2.5300    9.6447 C   0  0  0  0  0  0  0  0  0  0  0  0
    3.0717   -3.8467    9.4332 C   0  0  0  0  0  0  0  0  0  0  0  0
    3.9645   -4.8332    9.8566 C   0  0  0  0  0  0  0  0  0  0  0  0
    5.1461   -4.5292   10.5002 C   0  0  0  0  0  0  0  0  0  0  0  0
    5.4317   -3.1997   10.7207 C   0  0  0  0  0  0  0  0  0  0  0  0
    4.5510   -2.2376   10.3021 C   0  0  0  0  0  0  0  0  0  0  0  0
    1.5851   -1.1556   22.3811 O   0  0  0  0  0  0  0  0  0  0  0  0
  1  2  1  0
  2  3  1  0
  2  4  1  0
  4  5  2  0
  5  6  1  0
  6  7  2  0
  7  8  1  0
  8  9  2  0
  7 10  1  0
 10 11  1  0
 11 12  1  0
 12 13  1  0
 13 14  1  0
 14 15  1  0
 13 16  1  0
 16 17  2  0
 17 18  1  0
 18 19  2  0
 19 20  1  0
 20 21  2  0
 21 22  1  0
 22 23  2  0
 23 24  1  0
 24 25  2  0
 19 26  1  0
 26 27  1  0
 27 28  2  0
 28 29  1  0
 29 30  2  0
 30 31  1  0
 31 32  2  0
  2 33  1  0
  9  4  1  0
 15 10  1  0
 25 16  1  0
 25 20  1  0
 32 27  1  0
M  END
$$$$
