
     RDKit          3D

 33 37  0  0  0  0  0  0  0  0999 V2000
    3.6830    1.7836    3.4884 C   0  0  0  0  0  0  0  0  0  0  0  0
    4.4358    2.1423    4.7522 C   0  0  0  0  0  0  0  0  0  0  0  0
    5.6851    1.3131    4.8923 C   0  0  0  0  0  0  0  0  0  0  0  0
    3.5565    1.9227    5.9452 C   0  0  0  0  0  0  0  0  0  0  0  0
    3.7564    2.6577    7.1024 C   0  0  0  0  0  0  0  0  0  0  0  0
    2.9838    2.4746    8.1680 N   0  0  0  0  0  0  0  0  0  0  0  0
    1.9574    1.5820    8.2304 C   0  0  0  0  0  0  0  0  0  0  0  0
    1.7487    0.8449    7.0861 C   0  0  0  0  0  0  0  0  0  0  0  0
    2.5412    1.0135    5.9529 C   0  0  0  0  0  0  0  0  0  0  0  0
    1.1736    1.4408    9.4200 N   0  0  0  0  0  0  0  0  0  0  0  0
    0.8120    0.0903    9.8181 C   0  0  0  0  0  0  0  0  0  0  0  0
   -0.4026    0.2564   10.7497 C   0  0  0  0  0  0  0  0  0  0  0  0
    0.1923    1.0111   11.8867 N   0  0  0  0  0  0  0  0  0  0  0  0
    0.4111    2.3834   11.5884 C   0  0  0  0  0  0  0  0  0  0  0  0
    0.8034    2.6255   10.1313 C   0  0  0  0  0  0  0  0  0  0  0  0
    0.4874    0.2260   13.0155 C   0  0  0  0  0  0  0  0  0  0  0  0
    1.1606    0.8194   14.0693 N   0  0  0  0  0  0  0  0  0  0  0  0
    1.4627    0.2626   15.1794 N   0  0  0  0  0  0  0  0  0  0  0  0
    1.1465   -1.0356   15.4721 C   0  0  0  0  0  0  0  0  0  0  0  0
    0.4744   -1.6989   14.4768 C   0  0  0  0  0  0  0  0  0  0  0  0
    0.1099   -3.0042   14.6794 C   0  0  0  0  0  0  0  0  0  0  0  0
   -0.5633   -3.6885   13.6925 C   0  0  0  0  0  0  0  0  0  0  0  0
   -0.8823   -3.0919   12.5001 C   0  0  0  0  0  0  0  0  0  0  0  0
   -0.5309   -1.7760   12.2652 C   0  0  0  0  0  0  0  0  0  0  0  0
    0.1412   -1.0844   13.2495 C   0  0  0  0  0  0  0  0  0  0  0  0
    1.5727   -1.6383   16.7474 C   0  0  0  0  0  0  0  0  0  0  0  0
    1.1339   -0.8665   17.9502 C   0  0  0  0  0  0  0  0  0  0  0  0
    0.1215   -1.2363   18.7812 C   0  0  0  0  0  0  0  0  0  0  0  0
   -0.2078   -0.4555   19.8910 C   0  0  0  0  0  0  0  0  0  0  0  0
    0.4638    0.7100   20.1961 C   0  0  0  0  0  0  0  0  0  0  0  0
    1.4902    1.0951   19.3618 C   0  0  0  0  0  0  0  0  0  0  0  0
    1.8076    0.3237   18.2752 C   0  0  0  0  0  0  0  0  0  0  0  0
    4.8241    3.4766    4.6447 O   0  0  0  0  0  0  0  0  0  0  0  0
  1  2  1  0
  2  3  1  0
  2  4  1  0
  4  5  2  0
  5  6  1  0
  6  7  2  0
  7  8  1  0
  8  9  2  0
  7 10  1  0
 10 11  1  0
 11 12  1  0
 12 13  1  0
 13 14  1  0
 14 15  1  0
 13 16  1  0
 16 17  2  0
 17 18  1  0
 18 19  2  0
 19 20  1  0
 20 21  2  0
 21 22  1  0
 22 23  2  0
 23 24  1  0
 24 25  2  0
 19 26  1  0
 26 27  1  0
 27 28  2  0
 28 29  1  0
 29 30  2  0
 30 31  1  0
 31 32  2  0
  2 33  1  0
  9  4  1  0
 15 10  1  0
 25 16  1  0
 25 20  1  0
 32 27  1  0
M  END
$$$$
