
     RDKit          3D

 33 37  0  0  0  0  0  0  0  0999 V2000
    4.4949   -2.6503   24.2617 C   0  0  0  0  0  0  0  0  0  0  0  0
    4.3529   -1.2078   23.8242 C   0  0  0  0  0  0  0  0  0  0  0  0
    3.6677   -0.3854   24.8835 C   0  0  0  0  0  0  0  0  0  0  0  0
    3.5632   -1.1393   22.5528 C   0  0  0  0  0  0  0  0  0  0  0  0
    3.9659   -0.2997   21.5272 C   0  0  0  0  0  0  0  0  0  0  0  0
    3.2761   -0.2292   20.3935 N   0  0  0  0  0  0  0  0  0  0  0  0
    2.1480   -0.9460   20.1331 C   0  0  0  0  0  0  0  0  0  0  0  0
    1.7373   -1.7845   21.1453 C   0  0  0  0  0  0  0  0  0  0  0  0
    2.4385   -1.8807   22.3452 C   0  0  0  0  0  0  0  0  0  0  0  0
    1.4582   -0.8091   18.8862 N   0  0  0  0  0  0  0  0  0  0  0  0
    1.5500    0.4778   18.2166 C   0  0  0  0  0  0  0  0  0  0  0  0
    0.3521    0.5155   17.2499 C   0  0  0  0  0  0  0  0  0  0  0  0
    0.6818   -0.5992   16.3200 N   0  0  0  0  0  0  0  0  0  0  0  0
    0.4483   -1.8819   16.8859 C   0  0  0  0  0  0  0  0  0  0  0  0
    0.7332   -1.9366   18.3864 C   0  0  0  0  0  0  0  0  0  0  0  0
    1.2197   -0.1889   15.0872 C   0  0  0  0  0  0  0  0  0  0  0  0
    1.4863   -1.1559   14.1334 N   0  0  0  0  0  0  0  0  0  0  0  0
    1.9301   -0.9478   12.9530 N   0  0  0  0  0  0  0  0  0  0  0  0
    2.2063    0.3019   12.4705 C   0  0  0  0  0  0  0  0  0  0  0  0
    1.9680    1.3224   13.3559 C   0  0  0  0  0  0  0  0  0  0  0  0
    2.2103    2.6121   12.9615 C   0  0  0  0  0  0  0  0  0  0  0  0
    1.9797    3.6506   13.8355 C   0  0  0  0  0  0  0  0  0  0  0  0
    1.5087    3.4258   15.1032 C   0  0  0  0  0  0  0  0  0  0  0  0
    1.2521    2.1370   15.5311 C   0  0  0  0  0  0  0  0  0  0  0  0
    1.4786    1.0929   14.6608 C   0  0  0  0  0  0  0  0  0  0  0  0
    2.7703    0.4726   11.1200 C   0  0  0  0  0  0  0  0  0  0  0  0
    1.7727    0.9402   10.1095 C   0  0  0  0  0  0  0  0  0  0  0  0
    2.0005    1.9176    9.1904 C   0  0  0  0  0  0  0  0  0  0  0  0
    1.0091    2.2776    8.2755 C   0  0  0  0  0  0  0  0  0  0  0  0
   -0.2302    1.6722    8.2573 C   0  0  0  0  0  0  0  0  0  0  0  0
   -0.4730    0.6818    9.1835 C   0  0  0  0  0  0  0  0  0  0  0  0
    0.5047    0.3339   10.0776 C   0  0  0  0  0  0  0  0  0  0  0  0
    5.6369   -0.6927   23.6542 O   0  0  0  0  0  0  0  0  0  0  0  0
  1  2  1  0
  2  3  1  0
  2  4  1  0
  4  5  2  0
  5  6  1  0
  6  7  2  0
  7  8  1  0
  8  9  2  0
  7 10  1  0
 10 11  1  0
 11 12  1  0
 12 13  1  0
 13 14  1  0
 14 15  1  0
 13 16  1  0
 16 17  2  0
 17 18  1  0
 18 19  2  0
 19 20  1  0
 20 21  2  0
 21 22  1  0
 22 23  2  0
 23 24  1  0
 24 25  2  0
 19 26  1  0
 26 27  1  0
 27 28  2  0
 28 29  1  0
 29 30  2  0
 30 31  1  0
 31 32  2  0
  2 33  1  0
  9  4  1  0
 15 10  1  0
 25 16  1  0
 25 20  1  0
 32 27  1  0
M  END
$$$$
