
     RDKit          3D

 33 37  0  0  0  0  0  0  0  0999 V2000
    2.9091    2.2019    3.0826 C   0  0  0  0  0  0  0  0  0  0  0  0
    3.6487    2.7567    4.2816 C   0  0  0  0  0  0  0  0  0  0  0  0
    5.0961    2.3412    4.2650 C   0  0  0  0  0  0  0  0  0  0  0  0
    3.0055    2.2688    5.5438 C   0  0  0  0  0  0  0  0  0  0  0  0
    2.9642    0.9130    5.8254 C   0  0  0  0  0  0  0  0  0  0  0  0
    2.3981    0.4657    6.9414 N   0  0  0  0  0  0  0  0  0  0  0  0
    1.8235    1.2613    7.8853 C   0  0  0  0  0  0  0  0  0  0  0  0
    1.8580    2.6115    7.6167 C   0  0  0  0  0  0  0  0  0  0  0  0
    2.4440    3.1115    6.4560 C   0  0  0  0  0  0  0  0  0  0  0  0
    1.2287    0.7003    9.0604 N   0  0  0  0  0  0  0  0  0  0  0  0
    2.1186    0.0450   10.0046 C   0  0  0  0  0  0  0  0  0  0  0  0
    1.2122   -0.8799   10.8376 C   0  0  0  0  0  0  0  0  0  0  0  0
    0.3298    0.1032   11.5237 N   0  0  0  0  0  0  0  0  0  0  0  0
   -0.6651    0.6486   10.6676 C   0  0  0  0  0  0  0  0  0  0  0  0
   -0.1871    0.8217    9.2264 C   0  0  0  0  0  0  0  0  0  0  0  0
    0.6758    0.3609   12.8622 C   0  0  0  0  0  0  0  0  0  0  0  0
    0.1757    1.5045   13.4605 N   0  0  0  0  0  0  0  0  0  0  0  0
    0.3552    1.8595   14.6751 N   0  0  0  0  0  0  0  0  0  0  0  0
    1.0912    1.1260   15.5646 C   0  0  0  0  0  0  0  0  0  0  0  0
    1.6247   -0.0287   15.0505 C   0  0  0  0  0  0  0  0  0  0  0  0
    2.3743   -0.8336   15.8678 C   0  0  0  0  0  0  0  0  0  0  0  0
    2.9204   -1.9956   15.3710 C   0  0  0  0  0  0  0  0  0  0  0  0
    2.7315   -2.3729   14.0665 C   0  0  0  0  0  0  0  0  0  0  0  0
    1.9787   -1.5844   13.2170 C   0  0  0  0  0  0  0  0  0  0  0  0
    1.4273   -0.4210   13.7081 C   0  0  0  0  0  0  0  0  0  0  0  0
    1.3096    1.6172   16.9366 C   0  0  0  0  0  0  0  0  0  0  0  0
    1.9616    2.9612   16.9943 C   0  0  0  0  0  0  0  0  0  0  0  0
    1.5182    4.0665   16.3356 C   0  0  0  0  0  0  0  0  0  0  0  0
    2.1877    5.2853   16.4621 C   0  0  0  0  0  0  0  0  0  0  0  0
    3.3131    5.4286   17.2467 C   0  0  0  0  0  0  0  0  0  0  0  0
    3.7720    4.3166   17.9179 C   0  0  0  0  0  0  0  0  0  0  0  0
    3.1097    3.1244   17.7890 C   0  0  0  0  0  0  0  0  0  0  0  0
    3.6073    4.1470    4.1936 O   0  0  0  0  0  0  0  0  0  0  0  0
  1  2  1  0
  2  3  1  0
  2  4  1  0
  4  5  2  0
  5  6  1  0
  6  7  2  0
  7  8  1  0
  8  9  2  0
  7 10  1  0
 10 11  1  0
 11 12  1  0
 12 13  1  0
 13 14  1  0
 14 15  1  0
 13 16  1  0
 16 17  2  0
 17 18  1  0
 18 19  2  0
 19 20  1  0
 20 21  2  0
 21 22  1  0
 22 23  2  0
 23 24  1  0
 24 25  2  0
 19 26  1  0
 26 27  1  0
 27 28  2  0
 28 29  1  0
 29 30  2  0
 30 31  1  0
 31 32  2  0
  2 33  1  0
  9  4  1  0
 15 10  1  0
 25 16  1  0
 25 20  1  0
 32 27  1  0
M  END
$$$$
