
     RDKit          3D

 33 37  0  0  0  0  0  0  0  0999 V2000
    5.5521    2.7247    5.0714 C   0  0  0  0  0  0  0  0  0  0  0  0
    4.3500    1.9601    4.5588 C   0  0  0  0  0  0  0  0  0  0  0  0
    3.6751    2.7017    3.4352 C   0  0  0  0  0  0  0  0  0  0  0  0
    3.3714    1.7480    5.6734 C   0  0  0  0  0  0  0  0  0  0  0  0
    3.6227    0.7974    6.6493 C   0  0  0  0  0  0  0  0  0  0  0  0
    2.7646    0.5990    7.6444 N   0  0  0  0  0  0  0  0  0  0  0  0
    1.5970    1.2817    7.8015 C   0  0  0  0  0  0  0  0  0  0  0  0
    1.3356    2.2296    6.8374 C   0  0  0  0  0  0  0  0  0  0  0  0
    2.2151    2.4612    5.7821 C   0  0  0  0  0  0  0  0  0  0  0  0
    0.7222    1.0045    8.9003 N   0  0  0  0  0  0  0  0  0  0  0  0
    0.9421   -0.2364    9.6247 C   0  0  0  0  0  0  0  0  0  0  0  0
   -0.3867   -0.5213   10.3488 C   0  0  0  0  0  0  0  0  0  0  0  0
   -0.4751    0.6367   11.2801 N   0  0  0  0  0  0  0  0  0  0  0  0
   -0.8500    1.8442   10.6309 C   0  0  0  0  0  0  0  0  0  0  0  0
   -0.2985    1.9577    9.2101 C   0  0  0  0  0  0  0  0  0  0  0  0
   -0.1130    0.3451   12.6073 C   0  0  0  0  0  0  0  0  0  0  0  0
    0.8487   -0.6260   12.8265 N   0  0  0  0  0  0  0  0  0  0  0  0
    1.3210   -0.9761   13.9614 N   0  0  0  0  0  0  0  0  0  0  0  0
    0.9186   -0.4134   15.1414 C   0  0  0  0  0  0  0  0  0  0  0  0
   -0.0365    0.5630   15.0131 C   0  0  0  0  0  0  0  0  0  0  0  0
   -0.4996    1.1894   16.1404 C   0  0  0  0  0  0  0  0  0  0  0  0
   -1.4595    2.1705   16.0337 C   0  0  0  0  0  0  0  0  0  0  0  0
   -1.9692    2.5416   14.8163 C   0  0  0  0  0  0  0  0  0  0  0  0
   -1.5217    1.9309   13.6600 C   0  0  0  0  0  0  0  0  0  0  0  0
   -0.5595    0.9496   13.7593 C   0  0  0  0  0  0  0  0  0  0  0  0
    1.4592   -0.9000   16.4229 C   0  0  0  0  0  0  0  0  0  0  0  0
    1.2532   -2.3644   16.6418 C   0  0  0  0  0  0  0  0  0  0  0  0
    2.2072   -3.3173   16.4566 C   0  0  0  0  0  0  0  0  0  0  0  0
    1.9243   -4.6627   16.7007 C   0  0  0  0  0  0  0  0  0  0  0  0
    0.6854   -5.0873   17.1336 C   0  0  0  0  0  0  0  0  0  0  0  0
   -0.2887   -4.1321   17.3240 C   0  0  0  0  0  0  0  0  0  0  0  0
   -0.0036   -2.8141   17.0828 C   0  0  0  0  0  0  0  0  0  0  0  0
    4.8105    0.7477    4.0482 O   0  0  0  0  0  0  0  0  0  0  0  0
  1  2  1  0
  2  3  1  0
  2  4  1  0
  4  5  2  0
  5  6  1  0
  6  7  2  0
  7  8  1  0
  8  9  2  0
  7 10  1  0
 10 11  1  0
 11 12  1  0
 12 13  1  0
 13 14  1  0
 14 15  1  0
 13 16  1  0
 16 17  2  0
 17 18  1  0
 18 19  2  0
 19 20  1  0
 20 21  2  0
 21 22  1  0
 22 23  2  0
 23 24  1  0
 24 25  2  0
 19 26  1  0
 26 27  1  0
 27 28  2  0
 28 29  1  0
 29 30  2  0
 30 31  1  0
 31 32  2  0
  2 33  1  0
  9  4  1  0
 15 10  1  0
 25 16  1  0
 25 20  1  0
 32 27  1  0
M  END
$$$$
