
     RDKit          3D

 33 37  0  0  0  0  0  0  0  0999 V2000
    2.2009    2.5717    2.8744 C   0  0  0  0  0  0  0  0  0  0  0  0
    1.9607    1.1628    3.3742 C   0  0  0  0  0  0  0  0  0  0  0  0
    0.5766    0.6896    3.0162 C   0  0  0  0  0  0  0  0  0  0  0  0
    2.1331    1.1167    4.8618 C   0  0  0  0  0  0  0  0  0  0  0  0
    1.7555    2.1984    5.6405 C   0  0  0  0  0  0  0  0  0  0  0  0
    1.9014    2.1715    6.9611 N   0  0  0  0  0  0  0  0  0  0  0  0
    2.4160    1.1205    7.6573 C   0  0  0  0  0  0  0  0  0  0  0  0
    2.7954    0.0388    6.8942 C   0  0  0  0  0  0  0  0  0  0  0  0
    2.6553    0.0364    5.5082 C   0  0  0  0  0  0  0  0  0  0  0  0
    2.5453    1.1717    9.0821 N   0  0  0  0  0  0  0  0  0  0  0  0
    1.3796    1.5996    9.8377 C   0  0  0  0  0  0  0  0  0  0  0  0
    1.9290    2.0586   11.2009 C   0  0  0  0  0  0  0  0  0  0  0  0
    2.4851    0.7886   11.7433 N   0  0  0  0  0  0  0  0  0  0  0  0
    3.7174    0.4193   11.1392 C   0  0  0  0  0  0  0  0  0  0  0  0
    3.7996    0.8010    9.6617 C   0  0  0  0  0  0  0  0  0  0  0  0
    1.6685    0.1567   12.6981 C   0  0  0  0  0  0  0  0  0  0  0  0
    2.0198   -1.1124   13.1246 N   0  0  0  0  0  0  0  0  0  0  0  0
    1.4153   -1.8023   14.0147 N   0  0  0  0  0  0  0  0  0  0  0  0
    0.3064   -1.3544   14.6785 C   0  0  0  0  0  0  0  0  0  0  0  0
   -0.1099   -0.0989   14.3145 C   0  0  0  0  0  0  0  0  0  0  0  0
   -1.2109    0.4382   14.9285 C   0  0  0  0  0  0  0  0  0  0  0  0
   -1.6465    1.6958   14.5763 C   0  0  0  0  0  0  0  0  0  0  0  0
   -1.0004    2.4329   13.6176 C   0  0  0  0  0  0  0  0  0  0  0  0
    0.1143    1.9209   12.9811 C   0  0  0  0  0  0  0  0  0  0  0  0
    0.5571    0.6635   13.3302 C   0  0  0  0  0  0  0  0  0  0  0  0
   -0.3800   -2.2199   15.6537 C   0  0  0  0  0  0  0  0  0  0  0  0
    0.1930   -2.1399   17.0322 C   0  0  0  0  0  0  0  0  0  0  0  0
    1.4384   -2.5649   17.3796 C   0  0  0  0  0  0  0  0  0  0  0  0
    1.8922   -2.4358   18.6937 C   0  0  0  0  0  0  0  0  0  0  0  0
    1.1152   -1.8815   19.6895 C   0  0  0  0  0  0  0  0  0  0  0  0
   -0.1477   -1.4483   19.3502 C   0  0  0  0  0  0  0  0  0  0  0  0
   -0.5858   -1.5780   18.0588 C   0  0  0  0  0  0  0  0  0  0  0  0
    2.8723    0.3282    2.7300 O   0  0  0  0  0  0  0  0  0  0  0  0
  1  2  1  0
  2  3  1  0
  2  4  1  0
  4  5  2  0
  5  6  1  0
  6  7  2  0
  7  8  1  0
  8  9  2  0
  7 10  1  0
 10 11  1  0
 11 12  1  0
 12 13  1  0
 13 14  1  0
 14 15  1  0
 13 16  1  0
 16 17  2  0
 17 18  1  0
 18 19  2  0
 19 20  1  0
 20 21  2  0
 21 22  1  0
 22 23  2  0
 23 24  1  0
 24 25  2  0
 19 26  1  0
 26 27  1  0
 27 28  2  0
 28 29  1  0
 29 30  2  0
 30 31  1  0
 31 32  2  0
  2 33  1  0
  9  4  1  0
 15 10  1  0
 25 16  1  0
 25 20  1  0
 32 27  1  0
M  END
$$$$
