
     RDKit          3D

 23 25  0  0  0  0  0  0  0  0999 V2000
    3.8400    1.2773    8.3523 C   0  0  0  0  0  0  0  0  0  0  0  0
    3.2105    0.8023    9.6310 C   0  0  0  0  0  0  0  0  0  0  0  0
    3.9131    0.6775   10.6482 O   0  0  0  0  0  0  0  0  0  0  0  0
    1.8326    0.4928    9.7045 N   0  0  0  0  0  0  0  0  0  0  0  0
    1.0863    0.1647   10.8825 C   0  0  0  0  0  0  0  0  0  0  0  0
    1.4699    0.9404   12.1088 C   0  0  0  0  0  0  0  0  0  0  0  0
    0.5439    2.0479   12.4440 C   0  0  0  0  0  0  0  0  0  0  0  0
    0.2608    3.2279   11.8049 C   0  0  0  0  0  0  0  0  0  0  0  0
   -0.6981    3.8774   12.5455 N   0  0  0  0  0  0  0  0  0  0  0  0
   -0.9960    3.1232   13.6056 C   0  0  0  0  0  0  0  0  0  0  0  0
   -0.2607    1.9733   13.6040 C   0  0  0  0  0  0  0  0  0  0  0  0
   -0.3950    1.0374   14.5968 C   0  0  0  0  0  0  0  0  0  0  0  0
   -1.2878    1.2485   15.6255 C   0  0  0  0  0  0  0  0  0  0  0  0
   -2.0529    2.3992   15.6671 C   0  0  0  0  0  0  0  0  0  0  0  0
   -1.8902    3.3128   14.6551 C   0  0  0  0  0  0  0  0  0  0  0  0
   -1.4714    0.3421   16.6590 O   0  0  0  0  0  0  0  0  0  0  0  0
   -1.3132    0.7911   17.9836 C   0  0  0  0  0  0  0  0  0  0  0  0
    0.7672    3.8068   10.5946 C   0  0  0  0  0  0  0  0  0  0  0  0
    2.0516    3.6498   10.1757 C   0  0  0  0  0  0  0  0  0  0  0  0
    2.5454    4.2064    8.9771 C   0  0  0  0  0  0  0  0  0  0  0  0
    1.6991    4.9461    8.1836 C   0  0  0  0  0  0  0  0  0  0  0  0
    0.4031    5.1023    8.6104 C   0  0  0  0  0  0  0  0  0  0  0  0
   -0.0649    4.5489    9.7899 C   0  0  0  0  0  0  0  0  0  0  0  0
  1  2  1  0
  2  3  2  0
  2  4  1  0
  4  5  1  0
  5  6  1  0
  6  7  1  0
  7  8  2  0
  8  9  1  0
  9 10  1  0
 10 11  2  0
 11 12  1  0
 12 13  2  0
 13 14  1  0
 14 15  2  0
 13 16  1  0
 16 17  1  0
  8 18  1  0
 18 19  2  0
 19 20  1  0
 20 21  2  0
 21 22  1  0
 22 23  2  0
 11  7  1  0
 15 10  1  0
 23 18  1  0
M  END
$$$$
