
     RDKit          3D

 23 25  0  0  0  0  0  0  0  0999 V2000
    4.7792    4.7730   10.7529 C   0  0  0  0  0  0  0  0  0  0  0  0
    4.9648    3.4158   10.1359 C   0  0  0  0  0  0  0  0  0  0  0  0
    5.6963    3.2927    9.1391 O   0  0  0  0  0  0  0  0  0  0  0  0
    4.3245    2.2711   10.6648 N   0  0  0  0  0  0  0  0  0  0  0  0
    4.4297    0.9264   10.1818 C   0  0  0  0  0  0  0  0  0  0  0  0
    3.3181    0.4947    9.2705 C   0  0  0  0  0  0  0  0  0  0  0  0
    1.9875    0.4310    9.9198 C   0  0  0  0  0  0  0  0  0  0  0  0
    0.9770    1.3523   10.0258 C   0  0  0  0  0  0  0  0  0  0  0  0
   -0.0512    0.7578   10.7180 N   0  0  0  0  0  0  0  0  0  0  0  0
    0.3133   -0.4881   11.0286 C   0  0  0  0  0  0  0  0  0  0  0  0
    1.5681   -0.7560   10.5630 C   0  0  0  0  0  0  0  0  0  0  0  0
    2.1583   -1.9775   10.7606 C   0  0  0  0  0  0  0  0  0  0  0  0
    1.4822   -2.9664   11.4424 C   0  0  0  0  0  0  0  0  0  0  0  0
    0.2093   -2.7387   11.9316 C   0  0  0  0  0  0  0  0  0  0  0  0
   -0.3483   -1.5029   11.7138 C   0  0  0  0  0  0  0  0  0  0  0  0
    2.0223   -4.2224   11.6754 O   0  0  0  0  0  0  0  0  0  0  0  0
    1.3992   -5.0577   12.6216 C   0  0  0  0  0  0  0  0  0  0  0  0
    0.8574    2.7010    9.5536 C   0  0  0  0  0  0  0  0  0  0  0  0
   -0.1655    3.5248    9.9070 C   0  0  0  0  0  0  0  0  0  0  0  0
   -0.2746    4.8566    9.4548 C   0  0  0  0  0  0  0  0  0  0  0  0
    0.6923    5.3604    8.6155 C   0  0  0  0  0  0  0  0  0  0  0  0
    1.7233    4.5252    8.2611 C   0  0  0  0  0  0  0  0  0  0  0  0
    1.8148    3.2203    8.7144 C   0  0  0  0  0  0  0  0  0  0  0  0
  1  2  1  0
  2  3  2  0
  2  4  1  0
  4  5  1  0
  5  6  1  0
  6  7  1  0
  7  8  2  0
  8  9  1  0
  9 10  1  0
 10 11  2  0
 11 12  1  0
 12 13  2  0
 13 14  1  0
 14 15  2  0
 13 16  1  0
 16 17  1  0
  8 18  1  0
 18 19  2  0
 19 20  1  0
 20 21  2  0
 21 22  1  0
 22 23  2  0
 11  7  1  0
 15 10  1  0
 23 18  1  0
M  END
$$$$
