
     RDKit          3D

 23 25  0  0  0  0  0  0  0  0999 V2000
   -0.4607   -2.8407   10.2536 C   0  0  0  0  0  0  0  0  0  0  0  0
    0.0721   -1.4711    9.9414 C   0  0  0  0  0  0  0  0  0  0  0  0
   -0.7148   -0.5737    9.5957 O   0  0  0  0  0  0  0  0  0  0  0  0
    1.4526   -1.1781   10.0320 N   0  0  0  0  0  0  0  0  0  0  0  0
    2.0734    0.1016    9.8607 C   0  0  0  0  0  0  0  0  0  0  0  0
    2.5148    0.7641   11.1330 C   0  0  0  0  0  0  0  0  0  0  0  0
    1.4786    1.6098   11.7713 C   0  0  0  0  0  0  0  0  0  0  0  0
    0.9401    2.8201   11.4159 C   0  0  0  0  0  0  0  0  0  0  0  0
   -0.0075    3.1417   12.3585 N   0  0  0  0  0  0  0  0  0  0  0  0
   -0.0515    2.1627   13.2646 C   0  0  0  0  0  0  0  0  0  0  0  0
    0.8459    1.1803   12.9603 C   0  0  0  0  0  0  0  0  0  0  0  0
    0.9819    0.0669   13.7486 C   0  0  0  0  0  0  0  0  0  0  0  0
    0.2024   -0.0774   14.8762 C   0  0  0  0  0  0  0  0  0  0  0  0
   -0.7194    0.8931   15.2224 C   0  0  0  0  0  0  0  0  0  0  0  0
   -0.8264    1.9935   14.4082 C   0  0  0  0  0  0  0  0  0  0  0  0
    0.2905   -1.1786   15.7147 O   0  0  0  0  0  0  0  0  0  0  0  0
   -0.2765   -1.0924   17.0001 C   0  0  0  0  0  0  0  0  0  0  0  0
    1.1967    3.6942   10.3085 C   0  0  0  0  0  0  0  0  0  0  0  0
    0.8351    5.0054   10.2966 C   0  0  0  0  0  0  0  0  0  0  0  0
    1.1015    5.8690    9.2134 C   0  0  0  0  0  0  0  0  0  0  0  0
    1.7575    5.3758    8.1091 C   0  0  0  0  0  0  0  0  0  0  0  0
    2.1205    4.0514    8.1252 C   0  0  0  0  0  0  0  0  0  0  0  0
    1.8511    3.2178    9.1970 C   0  0  0  0  0  0  0  0  0  0  0  0
  1  2  1  0
  2  3  2  0
  2  4  1  0
  4  5  1  0
  5  6  1  0
  6  7  1  0
  7  8  2  0
  8  9  1  0
  9 10  1  0
 10 11  2  0
 11 12  1  0
 12 13  2  0
 13 14  1  0
 14 15  2  0
 13 16  1  0
 16 17  1  0
  8 18  1  0
 18 19  2  0
 19 20  1  0
 20 21  2  0
 21 22  1  0
 22 23  2  0
 11  7  1  0
 15 10  1  0
 23 18  1  0
M  END
$$$$
