
     RDKit          3D

 23 25  0  0  0  0  0  0  0  0999 V2000
    4.1296    4.2474    8.2083 C   0  0  0  0  0  0  0  0  0  0  0  0
    4.5008    3.0442    9.0279 C   0  0  0  0  0  0  0  0  0  0  0  0
    5.4440    3.1209    9.8331 O   0  0  0  0  0  0  0  0  0  0  0  0
    3.7997    1.8223    8.9040 N   0  0  0  0  0  0  0  0  0  0  0  0
    3.9298    0.6672    9.7414 C   0  0  0  0  0  0  0  0  0  0  0  0
    3.5519    0.8833   11.1776 C   0  0  0  0  0  0  0  0  0  0  0  0
    2.0919    0.8740   11.4318 C   0  0  0  0  0  0  0  0  0  0  0  0
    1.2278   -0.1386   11.7619 C   0  0  0  0  0  0  0  0  0  0  0  0
   -0.0220    0.4162   11.9029 N   0  0  0  0  0  0  0  0  0  0  0  0
    0.0684    1.7268   11.6672 C   0  0  0  0  0  0  0  0  0  0  0  0
    1.3532    2.0778   11.3685 C   0  0  0  0  0  0  0  0  0  0  0  0
    1.6932    3.3762   11.0896 C   0  0  0  0  0  0  0  0  0  0  0  0
    0.7275    4.3596   11.1073 C   0  0  0  0  0  0  0  0  0  0  0  0
   -0.5864    4.0492   11.4046 C   0  0  0  0  0  0  0  0  0  0  0  0
   -0.8879    2.7378   11.6785 C   0  0  0  0  0  0  0  0  0  0  0  0
    1.0055    5.6908   10.8350 O   0  0  0  0  0  0  0  0  0  0  0  0
    0.4276    6.6798   11.6529 C   0  0  0  0  0  0  0  0  0  0  0  0
    1.4325   -1.5429   11.9683 C   0  0  0  0  0  0  0  0  0  0  0  0
    0.5101   -2.3502   12.5578 C   0  0  0  0  0  0  0  0  0  0  0  0
    0.7052   -3.7345   12.7465 C   0  0  0  0  0  0  0  0  0  0  0  0
    1.8797   -4.3099   12.3193 C   0  0  0  0  0  0  0  0  0  0  0  0
    2.8083   -3.4911   11.7248 C   0  0  0  0  0  0  0  0  0  0  0  0
    2.6004   -2.1340   11.5474 C   0  0  0  0  0  0  0  0  0  0  0  0
  1  2  1  0
  2  3  2  0
  2  4  1  0
  4  5  1  0
  5  6  1  0
  6  7  1  0
  7  8  2  0
  8  9  1  0
  9 10  1  0
 10 11  2  0
 11 12  1  0
 12 13  2  0
 13 14  1  0
 14 15  2  0
 13 16  1  0
 16 17  1  0
  8 18  1  0
 18 19  2  0
 19 20  1  0
 20 21  2  0
 21 22  1  0
 22 23  2  0
 11  7  1  0
 15 10  1  0
 23 18  1  0
M  END
$$$$
