
     RDKit          3D

 23 25  0  0  0  0  0  0  0  0999 V2000
   -0.4841   -1.4190    9.3848 C   0  0  0  0  0  0  0  0  0  0  0  0
    0.1109   -1.3893   10.7640 C   0  0  0  0  0  0  0  0  0  0  0  0
    0.7138   -2.3885   11.1908 O   0  0  0  0  0  0  0  0  0  0  0  0
    0.0006   -0.2473   11.5907 N   0  0  0  0  0  0  0  0  0  0  0  0
    0.5986   -0.0566   12.8785 C   0  0  0  0  0  0  0  0  0  0  0  0
    1.5890    1.0685   12.9538 C   0  0  0  0  0  0  0  0  0  0  0  0
    1.0448    2.3875   12.5531 C   0  0  0  0  0  0  0  0  0  0  0  0
    1.2974    3.1897   11.4697 C   0  0  0  0  0  0  0  0  0  0  0  0
    0.4945    4.2998   11.5832 N   0  0  0  0  0  0  0  0  0  0  0  0
   -0.2287    4.1858   12.6993 C   0  0  0  0  0  0  0  0  0  0  0  0
    0.0639    3.0218   13.3493 C   0  0  0  0  0  0  0  0  0  0  0  0
   -0.5569    2.6833   14.5239 C   0  0  0  0  0  0  0  0  0  0  0  0
   -1.4991    3.5267   15.0723 C   0  0  0  0  0  0  0  0  0  0  0  0
   -1.8263    4.7160   14.4479 C   0  0  0  0  0  0  0  0  0  0  0  0
   -1.1832    5.0201   13.2734 C   0  0  0  0  0  0  0  0  0  0  0  0
   -2.1630    3.2431   16.2565 O   0  0  0  0  0  0  0  0  0  0  0  0
   -1.9113    4.0533   17.3796 C   0  0  0  0  0  0  0  0  0  0  0  0
    2.1817    3.0377   10.3511 C   0  0  0  0  0  0  0  0  0  0  0  0
    2.8491    1.8835   10.0821 C   0  0  0  0  0  0  0  0  0  0  0  0
    3.7068    1.7292    8.9728 C   0  0  0  0  0  0  0  0  0  0  0  0
    3.8871    2.7881    8.1130 C   0  0  0  0  0  0  0  0  0  0  0  0
    3.2115    3.9516    8.3884 C   0  0  0  0  0  0  0  0  0  0  0  0
    2.3733    4.0858    9.4819 C   0  0  0  0  0  0  0  0  0  0  0  0
  1  2  1  0
  2  3  2  0
  2  4  1  0
  4  5  1  0
  5  6  1  0
  6  7  1  0
  7  8  2  0
  8  9  1  0
  9 10  1  0
 10 11  2  0
 11 12  1  0
 12 13  2  0
 13 14  1  0
 14 15  2  0
 13 16  1  0
 16 17  1  0
  8 18  1  0
 18 19  2  0
 19 20  1  0
 20 21  2  0
 21 22  1  0
 22 23  2  0
 11  7  1  0
 15 10  1  0
 23 18  1  0
M  END
$$$$
