
     RDKit          3D

 23 25  0  0  0  0  0  0  0  0999 V2000
    5.1586    4.3042    9.4623 C   0  0  0  0  0  0  0  0  0  0  0  0
    5.1793    2.8022    9.4373 C   0  0  0  0  0  0  0  0  0  0  0  0
    5.8624    2.2149    8.5815 O   0  0  0  0  0  0  0  0  0  0  0  0
    4.4374    2.0385   10.3680 N   0  0  0  0  0  0  0  0  0  0  0  0
    4.2730    0.6154   10.3762 C   0  0  0  0  0  0  0  0  0  0  0  0
    3.2700    0.0905    9.3909 C   0  0  0  0  0  0  0  0  0  0  0  0
    1.8805    0.0400    9.9037 C   0  0  0  0  0  0  0  0  0  0  0  0
    0.8600    0.9558    9.8708 C   0  0  0  0  0  0  0  0  0  0  0  0
   -0.2304    0.3792   10.4776 N   0  0  0  0  0  0  0  0  0  0  0  0
    0.1066   -0.8507   10.8717 C   0  0  0  0  0  0  0  0  0  0  0  0
    1.4035   -1.1252   10.5466 C   0  0  0  0  0  0  0  0  0  0  0  0
    1.9764   -2.3331   10.8503 C   0  0  0  0  0  0  0  0  0  0  0  0
    1.2392   -3.3012   11.4978 C   0  0  0  0  0  0  0  0  0  0  0  0
   -0.0779   -3.0661   11.8461 C   0  0  0  0  0  0  0  0  0  0  0  0
   -0.6163   -1.8444   11.5250 C   0  0  0  0  0  0  0  0  0  0  0  0
    1.7588   -4.5426   11.8330 O   0  0  0  0  0  0  0  0  0  0  0  0
    0.9417   -5.6781   11.6778 C   0  0  0  0  0  0  0  0  0  0  0  0
    0.7827    2.2845    9.3370 C   0  0  0  0  0  0  0  0  0  0  0  0
   -0.2527    3.1291    9.5912 C   0  0  0  0  0  0  0  0  0  0  0  0
   -0.3210    4.4416    9.0787 C   0  0  0  0  0  0  0  0  0  0  0  0
    0.7010    4.9035    8.2818 C   0  0  0  0  0  0  0  0  0  0  0  0
    1.7444    4.0475    8.0274 C   0  0  0  0  0  0  0  0  0  0  0  0
    1.7954    2.7621    8.5388 C   0  0  0  0  0  0  0  0  0  0  0  0
  1  2  1  0
  2  3  2  0
  2  4  1  0
  4  5  1  0
  5  6  1  0
  6  7  1  0
  7  8  2  0
  8  9  1  0
  9 10  1  0
 10 11  2  0
 11 12  1  0
 12 13  2  0
 13 14  1  0
 14 15  2  0
 13 16  1  0
 16 17  1  0
  8 18  1  0
 18 19  2  0
 19 20  1  0
 20 21  2  0
 21 22  1  0
 22 23  2  0
 11  7  1  0
 15 10  1  0
 23 18  1  0
M  END
$$$$
