
     RDKit          3D

 23 25  0  0  0  0  0  0  0  0999 V2000
    0.3336   -2.8636    8.8984 C   0  0  0  0  0  0  0  0  0  0  0  0
    0.3673   -2.1499   10.2199 C   0  0  0  0  0  0  0  0  0  0  0  0
    1.1120   -2.5694   11.1219 O   0  0  0  0  0  0  0  0  0  0  0  0
   -0.4311   -1.0081   10.4624 N   0  0  0  0  0  0  0  0  0  0  0  0
   -0.5045   -0.2520   11.6771 C   0  0  0  0  0  0  0  0  0  0  0  0
    0.6352    0.6991   11.8980 C   0  0  0  0  0  0  0  0  0  0  0  0
    0.2342    2.0114   12.4580 C   0  0  0  0  0  0  0  0  0  0  0  0
    0.1880    3.2657   11.9051 C   0  0  0  0  0  0  0  0  0  0  0  0
   -0.2841    4.1237   12.8698 N   0  0  0  0  0  0  0  0  0  0  0  0
   -0.5206    3.4220   13.9803 C   0  0  0  0  0  0  0  0  0  0  0  0
   -0.2200    2.1038   13.7936 C   0  0  0  0  0  0  0  0  0  0  0  0
   -0.3833    1.1841   14.7971 C   0  0  0  0  0  0  0  0  0  0  0  0
   -0.8606    1.5845   16.0266 C   0  0  0  0  0  0  0  0  0  0  0  0
   -1.1777    2.9098   16.2599 C   0  0  0  0  0  0  0  0  0  0  0  0
   -1.0007    3.8009   15.2304 C   0  0  0  0  0  0  0  0  0  0  0  0
   -1.0488    0.7050   17.0823 O   0  0  0  0  0  0  0  0  0  0  0  0
   -1.5855    1.2024   18.2847 C   0  0  0  0  0  0  0  0  0  0  0  0
    0.5191    3.7477   10.5957 C   0  0  0  0  0  0  0  0  0  0  0  0
    0.3684    5.0466   10.2213 C   0  0  0  0  0  0  0  0  0  0  0  0
    0.7088    5.5237    8.9381 C   0  0  0  0  0  0  0  0  0  0  0  0
    1.2187    4.6450    8.0102 C   0  0  0  0  0  0  0  0  0  0  0  0
    1.3691    3.3345    8.3924 C   0  0  0  0  0  0  0  0  0  0  0  0
    1.0298    2.8832    9.6564 C   0  0  0  0  0  0  0  0  0  0  0  0
  1  2  1  0
  2  3  2  0
  2  4  1  0
  4  5  1  0
  5  6  1  0
  6  7  1  0
  7  8  2  0
  8  9  1  0
  9 10  1  0
 10 11  2  0
 11 12  1  0
 12 13  2  0
 13 14  1  0
 14 15  2  0
 13 16  1  0
 16 17  1  0
  8 18  1  0
 18 19  2  0
 19 20  1  0
 20 21  2  0
 21 22  1  0
 22 23  2  0
 11  7  1  0
 15 10  1  0
 23 18  1  0
M  END
$$$$
