
     RDKit          3D

 23 25  0  0  0  0  0  0  0  0999 V2000
   -1.7713   -1.5284   10.7623 C   0  0  0  0  0  0  0  0  0  0  0  0
   -0.3814   -1.2169   11.2399 C   0  0  0  0  0  0  0  0  0  0  0  0
    0.0436   -1.7553   12.2760 O   0  0  0  0  0  0  0  0  0  0  0  0
    0.4574   -0.3222   10.5358 N   0  0  0  0  0  0  0  0  0  0  0  0
    1.8003    0.0446   10.8742 C   0  0  0  0  0  0  0  0  0  0  0  0
    1.9222    1.0034   12.0224 C   0  0  0  0  0  0  0  0  0  0  0  0
    1.4571    2.3778   11.7208 C   0  0  0  0  0  0  0  0  0  0  0  0
    1.8460    3.2866   10.7700 C   0  0  0  0  0  0  0  0  0  0  0  0
    1.0624    4.4054   10.9250 N   0  0  0  0  0  0  0  0  0  0  0  0
    0.2189    4.1936   11.9375 C   0  0  0  0  0  0  0  0  0  0  0  0
    0.4104    2.9543   12.4764 C   0  0  0  0  0  0  0  0  0  0  0  0
   -0.3431    2.5093   13.5317 C   0  0  0  0  0  0  0  0  0  0  0  0
   -1.3191    3.3197   14.0706 C   0  0  0  0  0  0  0  0  0  0  0  0
   -1.5473    4.5825   13.5562 C   0  0  0  0  0  0  0  0  0  0  0  0
   -0.7724    4.9926   12.4994 C   0  0  0  0  0  0  0  0  0  0  0  0
   -2.1153    2.9297   15.1371 O   0  0  0  0  0  0  0  0  0  0  0  0
   -2.7880    3.9231   15.8731 C   0  0  0  0  0  0  0  0  0  0  0  0
    2.8435    3.2286    9.7414 C   0  0  0  0  0  0  0  0  0  0  0  0
    3.3219    2.0607    9.2343 C   0  0  0  0  0  0  0  0  0  0  0  0
    4.2918    2.0040    8.2115 C   0  0  0  0  0  0  0  0  0  0  0  0
    4.7871    3.1780    7.6922 C   0  0  0  0  0  0  0  0  0  0  0  0
    4.3014    4.3548    8.2072 C   0  0  0  0  0  0  0  0  0  0  0  0
    3.3492    4.3922    9.2113 C   0  0  0  0  0  0  0  0  0  0  0  0
  1  2  1  0
  2  3  2  0
  2  4  1  0
  4  5  1  0
  5  6  1  0
  6  7  1  0
  7  8  2  0
  8  9  1  0
  9 10  1  0
 10 11  2  0
 11 12  1  0
 12 13  2  0
 13 14  1  0
 14 15  2  0
 13 16  1  0
 16 17  1  0
  8 18  1  0
 18 19  2  0
 19 20  1  0
 20 21  2  0
 21 22  1  0
 22 23  2  0
 11  7  1  0
 15 10  1  0
 23 18  1  0
M  END
$$$$
