
     RDKit          3D

 23 25  0  0  0  0  0  0  0  0999 V2000
    3.9860    3.0397    7.5087 C   0  0  0  0  0  0  0  0  0  0  0  0
    4.4786    2.2119    8.6616 C   0  0  0  0  0  0  0  0  0  0  0  0
    5.3234    2.6880    9.4385 O   0  0  0  0  0  0  0  0  0  0  0  0
    4.0017    0.8994    8.8844 N   0  0  0  0  0  0  0  0  0  0  0  0
    4.2166    0.0920   10.0482 C   0  0  0  0  0  0  0  0  0  0  0  0
    3.4103    0.4900   11.2498 C   0  0  0  0  0  0  0  0  0  0  0  0
    1.9511    0.2771   11.1025 C   0  0  0  0  0  0  0  0  0  0  0  0
    0.9306    1.1336   10.7766 C   0  0  0  0  0  0  0  0  0  0  0  0
   -0.2324    0.4009   10.7602 N   0  0  0  0  0  0  0  0  0  0  0  0
    0.0611   -0.8647   11.0659 C   0  0  0  0  0  0  0  0  0  0  0  0
    1.3995   -1.0109   11.2905 C   0  0  0  0  0  0  0  0  0  0  0  0
    1.9405   -2.2266   11.6203 C   0  0  0  0  0  0  0  0  0  0  0  0
    1.1278   -3.3343   11.7312 C   0  0  0  0  0  0  0  0  0  0  0  0
   -0.2334   -3.2322   11.5125 C   0  0  0  0  0  0  0  0  0  0  0  0
   -0.7379   -1.9980   11.1841 C   0  0  0  0  0  0  0  0  0  0  0  0
    1.6119   -4.5915   12.0610 O   0  0  0  0  0  0  0  0  0  0  0  0
    0.6962   -5.5788   12.4706 C   0  0  0  0  0  0  0  0  0  0  0  0
    0.9168    2.5351   10.4731 C   0  0  0  0  0  0  0  0  0  0  0  0
    2.0384    3.2407   10.1662 C   0  0  0  0  0  0  0  0  0  0  0  0
    2.0225    4.6159    9.8524 C   0  0  0  0  0  0  0  0  0  0  0  0
    0.8227    5.2893    9.8529 C   0  0  0  0  0  0  0  0  0  0  0  0
   -0.3072    4.5732   10.1635 C   0  0  0  0  0  0  0  0  0  0  0  0
   -0.2735    3.2234   10.4691 C   0  0  0  0  0  0  0  0  0  0  0  0
  1  2  1  0
  2  3  2  0
  2  4  1  0
  4  5  1  0
  5  6  1  0
  6  7  1  0
  7  8  2  0
  8  9  1  0
  9 10  1  0
 10 11  2  0
 11 12  1  0
 12 13  2  0
 13 14  1  0
 14 15  2  0
 13 16  1  0
 16 17  1  0
  8 18  1  0
 18 19  2  0
 19 20  1  0
 20 21  2  0
 21 22  1  0
 22 23  2  0
 11  7  1  0
 15 10  1  0
 23 18  1  0
M  END
$$$$
