
     RDKit          3D

 23 25  0  0  0  0  0  0  0  0999 V2000
    1.5413    1.9372   14.5050 C   0  0  0  0  0  0  0  0  0  0  0  0
    1.8247    2.3763   13.0965 C   0  0  0  0  0  0  0  0  0  0  0  0
    0.9757    3.0441   12.4823 O   0  0  0  0  0  0  0  0  0  0  0  0
    3.0389    2.0464   12.4510 N   0  0  0  0  0  0  0  0  0  0  0  0
    3.3854    2.3064   11.0854 C   0  0  0  0  0  0  0  0  0  0  0  0
    3.3154    1.1126   10.1785 C   0  0  0  0  0  0  0  0  0  0  0  0
    1.9382    0.6517    9.8828 C   0  0  0  0  0  0  0  0  0  0  0  0
    0.8676    1.2831    9.3030 C   0  0  0  0  0  0  0  0  0  0  0  0
   -0.1662    0.3784    9.2529 N   0  0  0  0  0  0  0  0  0  0  0  0
    0.2529   -0.7720    9.7843 C   0  0  0  0  0  0  0  0  0  0  0  0
    1.5504   -0.6713   10.1957 C   0  0  0  0  0  0  0  0  0  0  0  0
    2.2013   -1.7301   10.7743 C   0  0  0  0  0  0  0  0  0  0  0  0
    1.5440   -2.9288   10.9509 C   0  0  0  0  0  0  0  0  0  0  0  0
    0.2294   -3.0754   10.5491 C   0  0  0  0  0  0  0  0  0  0  0  0
   -0.3885   -1.9925    9.9737 C   0  0  0  0  0  0  0  0  0  0  0  0
    2.1449   -4.0373   11.5286 O   0  0  0  0  0  0  0  0  0  0  0  0
    1.4803   -5.2760   11.4581 C   0  0  0  0  0  0  0  0  0  0  0  0
    0.7031    2.6114    8.7882 C   0  0  0  0  0  0  0  0  0  0  0  0
    1.3269    3.6973    9.3189 C   0  0  0  0  0  0  0  0  0  0  0  0
    1.1772    5.0015    8.8026 C   0  0  0  0  0  0  0  0  0  0  0  0
    0.3644    5.2004    7.7105 C   0  0  0  0  0  0  0  0  0  0  0  0
   -0.2637    4.1014    7.1779 C   0  0  0  0  0  0  0  0  0  0  0  0
   -0.1055    2.8280    7.6974 C   0  0  0  0  0  0  0  0  0  0  0  0
  1  2  1  0
  2  3  2  0
  2  4  1  0
  4  5  1  0
  5  6  1  0
  6  7  1  0
  7  8  2  0
  8  9  1  0
  9 10  1  0
 10 11  2  0
 11 12  1  0
 12 13  2  0
 13 14  1  0
 14 15  2  0
 13 16  1  0
 16 17  1  0
  8 18  1  0
 18 19  2  0
 19 20  1  0
 20 21  2  0
 21 22  1  0
 22 23  2  0
 11  7  1  0
 15 10  1  0
 23 18  1  0
M  END
$$$$
