
     RDKit          3D

 23 25  0  0  0  0  0  0  0  0999 V2000
    1.4194   -0.1785    7.0082 C   0  0  0  0  0  0  0  0  0  0  0  0
    1.5329   -0.2031    8.5061 C   0  0  0  0  0  0  0  0  0  0  0  0
    0.9307   -1.0787    9.1500 O   0  0  0  0  0  0  0  0  0  0  0  0
    2.3117    0.7498    9.2028 N   0  0  0  0  0  0  0  0  0  0  0  0
    2.5354    0.8098   10.6165 C   0  0  0  0  0  0  0  0  0  0  0  0
    1.3415    1.2216   11.4273 C   0  0  0  0  0  0  0  0  0  0  0  0
    1.1363    2.6871   11.5093 C   0  0  0  0  0  0  0  0  0  0  0  0
    0.7196    3.6053   10.5796 C   0  0  0  0  0  0  0  0  0  0  0  0
    0.6853    4.8320   11.1991 N   0  0  0  0  0  0  0  0  0  0  0  0
    1.0684    4.6754   12.4681 C   0  0  0  0  0  0  0  0  0  0  0  0
    1.3632    3.3681   12.7272 C   0  0  0  0  0  0  0  0  0  0  0  0
    1.7796    2.9616   13.9685 C   0  0  0  0  0  0  0  0  0  0  0  0
    1.9080    3.8815   14.9869 C   0  0  0  0  0  0  0  0  0  0  0  0
    1.6203    5.2161   14.7690 C   0  0  0  0  0  0  0  0  0  0  0  0
    1.2062    5.5846   13.5127 C   0  0  0  0  0  0  0  0  0  0  0  0
    2.3238    3.5357   16.2640 O   0  0  0  0  0  0  0  0  0  0  0  0
    2.3962    4.5435   17.2439 C   0  0  0  0  0  0  0  0  0  0  0  0
    0.3450    3.4706    9.2019 C   0  0  0  0  0  0  0  0  0  0  0  0
   -0.0643    2.2950    8.6540 C   0  0  0  0  0  0  0  0  0  0  0  0
   -0.4477    2.1662    7.3025 C   0  0  0  0  0  0  0  0  0  0  0  0
   -0.4109    3.2739    6.4873 C   0  0  0  0  0  0  0  0  0  0  0  0
    0.0031    4.4589    7.0446 C   0  0  0  0  0  0  0  0  0  0  0  0
    0.3759    4.5675    8.3733 C   0  0  0  0  0  0  0  0  0  0  0  0
  1  2  1  0
  2  3  2  0
  2  4  1  0
  4  5  1  0
  5  6  1  0
  6  7  1  0
  7  8  2  0
  8  9  1  0
  9 10  1  0
 10 11  2  0
 11 12  1  0
 12 13  2  0
 13 14  1  0
 14 15  2  0
 13 16  1  0
 16 17  1  0
  8 18  1  0
 18 19  2  0
 19 20  1  0
 20 21  2  0
 21 22  1  0
 22 23  2  0
 11  7  1  0
 15 10  1  0
 23 18  1  0
M  END
$$$$
