
     RDKit          3D

 23 25  0  0  0  0  0  0  0  0999 V2000
    2.6099    4.1626   12.3049 C   0  0  0  0  0  0  0  0  0  0  0  0
    3.0736    2.7379   12.4164 C   0  0  0  0  0  0  0  0  0  0  0  0
    2.9842    2.1500   13.5074 O   0  0  0  0  0  0  0  0  0  0  0  0
    3.6112    2.0479   11.3052 N   0  0  0  0  0  0  0  0  0  0  0  0
    4.0253    0.6771   11.2620 C   0  0  0  0  0  0  0  0  0  0  0  0
    3.5555   -0.0862   10.0582 C   0  0  0  0  0  0  0  0  0  0  0  0
    2.0936   -0.3264   10.0211 C   0  0  0  0  0  0  0  0  0  0  0  0
    1.0520    0.4426    9.5684 C   0  0  0  0  0  0  0  0  0  0  0  0
   -0.1034   -0.2786    9.7545 N   0  0  0  0  0  0  0  0  0  0  0  0
    0.2151   -1.4527   10.3037 C   0  0  0  0  0  0  0  0  0  0  0  0
    1.5630   -1.5477   10.4962 C   0  0  0  0  0  0  0  0  0  0  0  0
    2.1293   -2.6676   11.0480 C   0  0  0  0  0  0  0  0  0  0  0  0
    1.3329   -3.7288   11.4214 C   0  0  0  0  0  0  0  0  0  0  0  0
   -0.0373   -3.6757   11.2448 C   0  0  0  0  0  0  0  0  0  0  0  0
   -0.5672   -2.5373   10.6890 C   0  0  0  0  0  0  0  0  0  0  0  0
    1.8426   -4.8894   11.9842 O   0  0  0  0  0  0  0  0  0  0  0  0
    0.9416   -5.8881   12.3986 C   0  0  0  0  0  0  0  0  0  0  0  0
    1.0118    1.7502    8.9812 C   0  0  0  0  0  0  0  0  0  0  0  0
   -0.1440    2.3633    8.6095 C   0  0  0  0  0  0  0  0  0  0  0  0
   -0.1847    3.6560    8.0462 C   0  0  0  0  0  0  0  0  0  0  0  0
    0.9931    4.3418    7.8575 C   0  0  0  0  0  0  0  0  0  0  0  0
    2.1578    3.7191    8.2340 C   0  0  0  0  0  0  0  0  0  0  0  0
    2.1794    2.4495    8.7856 C   0  0  0  0  0  0  0  0  0  0  0  0
  1  2  1  0
  2  3  2  0
  2  4  1  0
  4  5  1  0
  5  6  1  0
  6  7  1  0
  7  8  2  0
  8  9  1  0
  9 10  1  0
 10 11  2  0
 11 12  1  0
 12 13  2  0
 13 14  1  0
 14 15  2  0
 13 16  1  0
 16 17  1  0
  8 18  1  0
 18 19  2  0
 19 20  1  0
 20 21  2  0
 21 22  1  0
 22 23  2  0
 11  7  1  0
 15 10  1  0
 23 18  1  0
M  END
$$$$
