
     RDKit          3D

 23 25  0  0  0  0  0  0  0  0999 V2000
    4.9955    0.5979   10.6018 C   0  0  0  0  0  0  0  0  0  0  0  0
    3.7931   -0.0538   11.2236 C   0  0  0  0  0  0  0  0  0  0  0  0
    3.8092   -1.2755   11.4500 O   0  0  0  0  0  0  0  0  0  0  0  0
    2.6397    0.6927   11.5584 N   0  0  0  0  0  0  0  0  0  0  0  0
    1.4023    0.1816   12.0684 C   0  0  0  0  0  0  0  0  0  0  0  0
    0.1777    0.9139   11.6033 C   0  0  0  0  0  0  0  0  0  0  0  0
    0.0020    2.2547   12.2099 C   0  0  0  0  0  0  0  0  0  0  0  0
    0.1493    3.5173   11.6951 C   0  0  0  0  0  0  0  0  0  0  0  0
   -0.1630    4.4083   12.6943 N   0  0  0  0  0  0  0  0  0  0  0  0
   -0.4916    3.7181   13.7885 C   0  0  0  0  0  0  0  0  0  0  0  0
   -0.4100    2.3754   13.5569 C   0  0  0  0  0  0  0  0  0  0  0  0
   -0.7030    1.4619   14.5362 C   0  0  0  0  0  0  0  0  0  0  0  0
   -1.0899    1.8936   15.7867 C   0  0  0  0  0  0  0  0  0  0  0  0
   -1.1859    3.2444   16.0654 C   0  0  0  0  0  0  0  0  0  0  0  0
   -0.8843    4.1284   15.0590 C   0  0  0  0  0  0  0  0  0  0  0  0
   -1.4001    1.0220   16.8199 O   0  0  0  0  0  0  0  0  0  0  0  0
   -2.3349    1.4328   17.7888 C   0  0  0  0  0  0  0  0  0  0  0  0
    0.5326    3.9822   10.3938 C   0  0  0  0  0  0  0  0  0  0  0  0
    0.9630    3.1534    9.4050 C   0  0  0  0  0  0  0  0  0  0  0  0
    1.3251    3.6090    8.1199 C   0  0  0  0  0  0  0  0  0  0  0  0
    1.2446    4.9534    7.8386 C   0  0  0  0  0  0  0  0  0  0  0  0
    0.8098    5.7867    8.8399 C   0  0  0  0  0  0  0  0  0  0  0  0
    0.4583    5.3224   10.0958 C   0  0  0  0  0  0  0  0  0  0  0  0
  1  2  1  0
  2  3  2  0
  2  4  1  0
  4  5  1  0
  5  6  1  0
  6  7  1  0
  7  8  2  0
  8  9  1  0
  9 10  1  0
 10 11  2  0
 11 12  1  0
 12 13  2  0
 13 14  1  0
 14 15  2  0
 13 16  1  0
 16 17  1  0
  8 18  1  0
 18 19  2  0
 19 20  1  0
 20 21  2  0
 21 22  1  0
 22 23  2  0
 11  7  1  0
 15 10  1  0
 23 18  1  0
M  END
$$$$
