
     RDKit          3D

 23 25  0  0  0  0  0  0  0  0999 V2000
   -1.7680   -2.0040   11.4774 C   0  0  0  0  0  0  0  0  0  0  0  0
   -0.4907   -1.4301   10.9332 C   0  0  0  0  0  0  0  0  0  0  0  0
   -0.0686   -1.8164    9.8302 O   0  0  0  0  0  0  0  0  0  0  0  0
    0.2450   -0.4573   11.6490 N   0  0  0  0  0  0  0  0  0  0  0  0
    1.5004    0.1210   11.2722 C   0  0  0  0  0  0  0  0  0  0  0  0
    1.9143    1.3138   12.0834 C   0  0  0  0  0  0  0  0  0  0  0  0
    1.6956    2.6153   11.4091 C   0  0  0  0  0  0  0  0  0  0  0  0
    2.3591    3.2352   10.3812 C   0  0  0  0  0  0  0  0  0  0  0  0
    1.7174    4.4259   10.1357 N   0  0  0  0  0  0  0  0  0  0  0  0
    0.6928    4.5364   10.9840 C   0  0  0  0  0  0  0  0  0  0  0  0
    0.6220    3.4467   11.8028 C   0  0  0  0  0  0  0  0  0  0  0  0
   -0.3532    3.3334   12.7596 C   0  0  0  0  0  0  0  0  0  0  0  0
   -1.2895    4.3337   12.9098 C   0  0  0  0  0  0  0  0  0  0  0  0
   -1.2556    5.4553   12.1023 C   0  0  0  0  0  0  0  0  0  0  0  0
   -0.2639    5.5325   11.1557 C   0  0  0  0  0  0  0  0  0  0  0  0
   -2.3009    4.2801   13.8573 O   0  0  0  0  0  0  0  0  0  0  0  0
   -2.3076    5.2375   14.8890 C   0  0  0  0  0  0  0  0  0  0  0  0
    3.5006    2.8458    9.6055 C   0  0  0  0  0  0  0  0  0  0  0  0
    3.8887    1.5513    9.4516 C   0  0  0  0  0  0  0  0  0  0  0  0
    5.0025    1.1672    8.6757 C   0  0  0  0  0  0  0  0  0  0  0  0
    5.7414    2.1372    8.0384 C   0  0  0  0  0  0  0  0  0  0  0  0
    5.3462    3.4429    8.1966 C   0  0  0  0  0  0  0  0  0  0  0  0
    4.2501    3.8022    8.9620 C   0  0  0  0  0  0  0  0  0  0  0  0
  1  2  1  0
  2  3  2  0
  2  4  1  0
  4  5  1  0
  5  6  1  0
  6  7  1  0
  7  8  2  0
  8  9  1  0
  9 10  1  0
 10 11  2  0
 11 12  1  0
 12 13  2  0
 13 14  1  0
 14 15  2  0
 13 16  1  0
 16 17  1  0
  8 18  1  0
 18 19  2  0
 19 20  1  0
 20 21  2  0
 21 22  1  0
 22 23  2  0
 11  7  1  0
 15 10  1  0
 23 18  1  0
M  END
$$$$
