
     RDKit          3D

 23 25  0  0  0  0  0  0  0  0999 V2000
   -0.2512   -3.0769    9.9325 C   0  0  0  0  0  0  0  0  0  0  0  0
    0.7987   -2.3598   10.7327 C   0  0  0  0  0  0  0  0  0  0  0  0
    0.7984   -2.4614   11.9711 O   0  0  0  0  0  0  0  0  0  0  0  0
    1.7908   -1.5692   10.1077 N   0  0  0  0  0  0  0  0  0  0  0  0
    2.8370   -0.8332   10.7528 C   0  0  0  0  0  0  0  0  0  0  0  0
    2.3991    0.4456   11.4050 C   0  0  0  0  0  0  0  0  0  0  0  0
    2.3436    1.6092   10.4888 C   0  0  0  0  0  0  0  0  0  0  0  0
    1.2883    2.2724    9.9163 C   0  0  0  0  0  0  0  0  0  0  0  0
    1.8069    3.2999    9.1646 N   0  0  0  0  0  0  0  0  0  0  0  0
    3.1371    3.2709    9.2698 C   0  0  0  0  0  0  0  0  0  0  0  0
    3.5370    2.2457   10.0773 C   0  0  0  0  0  0  0  0  0  0  0  0
    4.8632    2.0158   10.3373 C   0  0  0  0  0  0  0  0  0  0  0  0
    5.8253    2.8294    9.7783 C   0  0  0  0  0  0  0  0  0  0  0  0
    5.4655    3.8796    8.9543 C   0  0  0  0  0  0  0  0  0  0  0  0
    4.1275    4.0778    8.7176 C   0  0  0  0  0  0  0  0  0  0  0  0
    7.1824    2.6510   10.0015 O   0  0  0  0  0  0  0  0  0  0  0  0
    8.0008    3.7904   10.1165 C   0  0  0  0  0  0  0  0  0  0  0  0
   -0.1287    2.0674    9.9966 C   0  0  0  0  0  0  0  0  0  0  0  0
   -1.0339    2.8878    9.3988 C   0  0  0  0  0  0  0  0  0  0  0  0
   -2.4272    2.6771    9.4649 C   0  0  0  0  0  0  0  0  0  0  0  0
   -2.9085    1.5942   10.1640 C   0  0  0  0  0  0  0  0  0  0  0  0
   -1.9911    0.7685   10.7662 C   0  0  0  0  0  0  0  0  0  0  0  0
   -0.6267    0.9902   10.6911 C   0  0  0  0  0  0  0  0  0  0  0  0
  1  2  1  0
  2  3  2  0
  2  4  1  0
  4  5  1  0
  5  6  1  0
  6  7  1  0
  7  8  2  0
  8  9  1  0
  9 10  1  0
 10 11  2  0
 11 12  1  0
 12 13  2  0
 13 14  1  0
 14 15  2  0
 13 16  1  0
 16 17  1  0
  8 18  1  0
 18 19  2  0
 19 20  1  0
 20 21  2  0
 21 22  1  0
 22 23  2  0
 11  7  1  0
 15 10  1  0
 23 18  1  0
M  END
$$$$
