
     RDKit          3D

 23 25  0  0  0  0  0  0  0  0999 V2000
    4.8337    2.5451    9.4534 C   0  0  0  0  0  0  0  0  0  0  0  0
    4.0741    1.4216   10.0998 C   0  0  0  0  0  0  0  0  0  0  0  0
    4.4426    0.9920   11.2060 O   0  0  0  0  0  0  0  0  0  0  0  0
    2.9457    0.8396    9.4770 N   0  0  0  0  0  0  0  0  0  0  0  0
    2.1178   -0.2058   10.0007 C   0  0  0  0  0  0  0  0  0  0  0  0
    0.6985    0.1937   10.2805 C   0  0  0  0  0  0  0  0  0  0  0  0
    0.5347    1.0747   11.4609 C   0  0  0  0  0  0  0  0  0  0  0  0
    0.4665    2.4393   11.5808 C   0  0  0  0  0  0  0  0  0  0  0  0
    0.2869    2.7271   12.9129 N   0  0  0  0  0  0  0  0  0  0  0  0
    0.2459    1.5785   13.5916 C   0  0  0  0  0  0  0  0  0  0  0  0
    0.3938    0.5135   12.7508 C   0  0  0  0  0  0  0  0  0  0  0  0
    0.3835   -0.7746   13.2200 C   0  0  0  0  0  0  0  0  0  0  0  0
    0.2211   -1.0151   14.5674 C   0  0  0  0  0  0  0  0  0  0  0  0
    0.0680    0.0336   15.4552 C   0  0  0  0  0  0  0  0  0  0  0  0
    0.0837    1.3093   14.9474 C   0  0  0  0  0  0  0  0  0  0  0  0
    0.2012   -2.2931   15.1056 O   0  0  0  0  0  0  0  0  0  0  0  0
    0.0817   -2.4337   16.5010 C   0  0  0  0  0  0  0  0  0  0  0  0
    0.5385    3.4907   10.6083 C   0  0  0  0  0  0  0  0  0  0  0  0
    0.1550    3.3332    9.3129 C   0  0  0  0  0  0  0  0  0  0  0  0
    0.2111    4.3721    8.3602 C   0  0  0  0  0  0  0  0  0  0  0  0
    0.6739    5.6094    8.7449 C   0  0  0  0  0  0  0  0  0  0  0  0
    1.0603    5.7640   10.0536 C   0  0  0  0  0  0  0  0  0  0  0  0
    0.9985    4.7333   10.9757 C   0  0  0  0  0  0  0  0  0  0  0  0
  1  2  1  0
  2  3  2  0
  2  4  1  0
  4  5  1  0
  5  6  1  0
  6  7  1  0
  7  8  2  0
  8  9  1  0
  9 10  1  0
 10 11  2  0
 11 12  1  0
 12 13  2  0
 13 14  1  0
 14 15  2  0
 13 16  1  0
 16 17  1  0
  8 18  1  0
 18 19  2  0
 19 20  1  0
 20 21  2  0
 21 22  1  0
 22 23  2  0
 11  7  1  0
 15 10  1  0
 23 18  1  0
M  END
$$$$
