
     RDKit          3D

 23 25  0  0  0  0  0  0  0  0999 V2000
    0.2353    5.1662   12.4255 C   0  0  0  0  0  0  0  0  0  0  0  0
    0.5471    3.7102   12.6254 C   0  0  0  0  0  0  0  0  0  0  0  0
    1.6842    3.3744   12.9970 O   0  0  0  0  0  0  0  0  0  0  0  0
   -0.4264    2.7095   12.3998 N   0  0  0  0  0  0  0  0  0  0  0  0
   -0.2298    1.2914   12.4498 C   0  0  0  0  0  0  0  0  0  0  0  0
   -0.1561    0.6170   11.1111 C   0  0  0  0  0  0  0  0  0  0  0  0
    1.1946    0.1259   10.7495 C   0  0  0  0  0  0  0  0  0  0  0  0
    2.2245    0.7095   10.0568 C   0  0  0  0  0  0  0  0  0  0  0  0
    3.2649   -0.1887   10.0316 N   0  0  0  0  0  0  0  0  0  0  0  0
    2.8889   -1.2893   10.6865 C   0  0  0  0  0  0  0  0  0  0  0  0
    1.6144   -1.1609   11.1578 C   0  0  0  0  0  0  0  0  0  0  0  0
    1.0094   -2.1666   11.8663 C   0  0  0  0  0  0  0  0  0  0  0  0
    1.6905   -3.3386   12.1160 C   0  0  0  0  0  0  0  0  0  0  0  0
    2.9832   -3.5118   11.6574 C   0  0  0  0  0  0  0  0  0  0  0  0
    3.5551   -2.4821   10.9517 C   0  0  0  0  0  0  0  0  0  0  0  0
    1.1362   -4.3932   12.8261 O   0  0  0  0  0  0  0  0  0  0  0  0
    1.6763   -5.6809   12.6493 C   0  0  0  0  0  0  0  0  0  0  0  0
    2.3520    1.9945    9.4332 C   0  0  0  0  0  0  0  0  0  0  0  0
    1.3165    2.8679    9.3109 C   0  0  0  0  0  0  0  0  0  0  0  0
    1.4459    4.1383    8.7114 C   0  0  0  0  0  0  0  0  0  0  0  0
    2.6719    4.5264    8.2222 C   0  0  0  0  0  0  0  0  0  0  0  0
    3.7146    3.6415    8.3476 C   0  0  0  0  0  0  0  0  0  0  0  0
    3.5700    2.3983    8.9391 C   0  0  0  0  0  0  0  0  0  0  0  0
  1  2  1  0
  2  3  2  0
  2  4  1  0
  4  5  1  0
  5  6  1  0
  6  7  1  0
  7  8  2  0
  8  9  1  0
  9 10  1  0
 10 11  2  0
 11 12  1  0
 12 13  2  0
 13 14  1  0
 14 15  2  0
 13 16  1  0
 16 17  1  0
  8 18  1  0
 18 19  2  0
 19 20  1  0
 20 21  2  0
 21 22  1  0
 22 23  2  0
 11  7  1  0
 15 10  1  0
 23 18  1  0
M  END
$$$$
