
     RDKit          3D

 23 25  0  0  0  0  0  0  0  0999 V2000
    0.2716    4.9729   12.9263 C   0  0  0  0  0  0  0  0  0  0  0  0
    0.6641    3.6782   13.5795 C   0  0  0  0  0  0  0  0  0  0  0  0
    1.0146    3.6771   14.7716 O   0  0  0  0  0  0  0  0  0  0  0  0
    0.6439    2.4566   12.8673 N   0  0  0  0  0  0  0  0  0  0  0  0
    0.9636    1.1572   13.3790 C   0  0  0  0  0  0  0  0  0  0  0  0
    1.9999    0.4075   12.5939 C   0  0  0  0  0  0  0  0  0  0  0  0
    1.4952   -0.1944   11.3372 C   0  0  0  0  0  0  0  0  0  0  0  0
    1.3631    0.3124   10.0695 C   0  0  0  0  0  0  0  0  0  0  0  0
    0.8587   -0.6903    9.2759 N   0  0  0  0  0  0  0  0  0  0  0  0
    0.6853   -1.7786   10.0290 C   0  0  0  0  0  0  0  0  0  0  0  0
    1.0607   -1.5395   11.3193 C   0  0  0  0  0  0  0  0  0  0  0  0
    0.9740   -2.5126   12.2811 C   0  0  0  0  0  0  0  0  0  0  0  0
    0.4993   -3.7643   11.9529 C   0  0  0  0  0  0  0  0  0  0  0  0
    0.1077   -4.0505   10.6583 C   0  0  0  0  0  0  0  0  0  0  0  0
    0.2094   -3.0501    9.7231 C   0  0  0  0  0  0  0  0  0  0  0  0
    0.3870   -4.7917   12.8778 O   0  0  0  0  0  0  0  0  0  0  0  0
   -0.1674   -6.0160   12.4594 C   0  0  0  0  0  0  0  0  0  0  0  0
    1.6586    1.6029    9.5186 C   0  0  0  0  0  0  0  0  0  0  0  0
    2.4690    2.5061   10.1330 C   0  0  0  0  0  0  0  0  0  0  0  0
    2.7720    3.7695    9.5834 C   0  0  0  0  0  0  0  0  0  0  0  0
    2.2292    4.1191    8.3685 C   0  0  0  0  0  0  0  0  0  0  0  0
    1.4114    3.2043    7.7516 C   0  0  0  0  0  0  0  0  0  0  0  0
    1.1245    1.9685    8.3054 C   0  0  0  0  0  0  0  0  0  0  0  0
  1  2  1  0
  2  3  2  0
  2  4  1  0
  4  5  1  0
  5  6  1  0
  6  7  1  0
  7  8  2  0
  8  9  1  0
  9 10  1  0
 10 11  2  0
 11 12  1  0
 12 13  2  0
 13 14  1  0
 14 15  2  0
 13 16  1  0
 16 17  1  0
  8 18  1  0
 18 19  2  0
 19 20  1  0
 20 21  2  0
 21 22  1  0
 22 23  2  0
 11  7  1  0
 15 10  1  0
 23 18  1  0
M  END
$$$$
