
     RDKit          3D

 23 25  0  0  0  0  0  0  0  0999 V2000
   -0.3393    5.9994    7.6014 C   0  0  0  0  0  0  0  0  0  0  0  0
    0.5706    4.8508    7.9327 C   0  0  0  0  0  0  0  0  0  0  0  0
    1.7985    4.9858    7.7985 O   0  0  0  0  0  0  0  0  0  0  0  0
    0.0609    3.6154    8.3952 N   0  0  0  0  0  0  0  0  0  0  0  0
    0.8192    2.4681    8.7965 C   0  0  0  0  0  0  0  0  0  0  0  0
    0.6507    2.0718   10.2342 C   0  0  0  0  0  0  0  0  0  0  0  0
    1.3916    2.9256   11.1926 C   0  0  0  0  0  0  0  0  0  0  0  0
    2.7318    3.1688   11.3536 C   0  0  0  0  0  0  0  0  0  0  0  0
    2.8663    4.0650   12.3873 N   0  0  0  0  0  0  0  0  0  0  0  0
    1.6499    4.3641   12.8483 C   0  0  0  0  0  0  0  0  0  0  0  0
    0.6887    3.6909   12.1512 C   0  0  0  0  0  0  0  0  0  0  0  0
   -0.6424    3.8386   12.4441 C   0  0  0  0  0  0  0  0  0  0  0  0
   -1.0338    4.6817   13.4619 C   0  0  0  0  0  0  0  0  0  0  0  0
   -0.0940    5.3831   14.1942 C   0  0  0  0  0  0  0  0  0  0  0  0
    1.2292    5.2089   13.8711 C   0  0  0  0  0  0  0  0  0  0  0  0
   -2.3627    4.8756   13.8080 O   0  0  0  0  0  0  0  0  0  0  0  0
   -2.7468    4.6674   15.1460 C   0  0  0  0  0  0  0  0  0  0  0  0
    3.8847    2.6764   10.6575 C   0  0  0  0  0  0  0  0  0  0  0  0
    5.1013    2.5258   11.2468 C   0  0  0  0  0  0  0  0  0  0  0  0
    6.2315    2.0266   10.5660 C   0  0  0  0  0  0  0  0  0  0  0  0
    6.1131    1.6710    9.2421 C   0  0  0  0  0  0  0  0  0  0  0  0
    4.8831    1.8248    8.6510 C   0  0  0  0  0  0  0  0  0  0  0  0
    3.7840    2.3164    9.3343 C   0  0  0  0  0  0  0  0  0  0  0  0
  1  2  1  0
  2  3  2  0
  2  4  1  0
  4  5  1  0
  5  6  1  0
  6  7  1  0
  7  8  2  0
  8  9  1  0
  9 10  1  0
 10 11  2  0
 11 12  1  0
 12 13  2  0
 13 14  1  0
 14 15  2  0
 13 16  1  0
 16 17  1  0
  8 18  1  0
 18 19  2  0
 19 20  1  0
 20 21  2  0
 21 22  1  0
 22 23  2  0
 11  7  1  0
 15 10  1  0
 23 18  1  0
M  END
$$$$
