
     RDKit          3D

 23 25  0  0  0  0  0  0  0  0999 V2000
    5.3070    3.8107    9.3573 C   0  0  0  0  0  0  0  0  0  0  0  0
    4.8702    2.5033    9.9547 C   0  0  0  0  0  0  0  0  0  0  0  0
    4.9243    2.3460   11.1861 O   0  0  0  0  0  0  0  0  0  0  0  0
    4.3974    1.4438    9.1461 N   0  0  0  0  0  0  0  0  0  0  0  0
    3.9066    0.1740    9.5923 C   0  0  0  0  0  0  0  0  0  0  0  0
    2.4239   -0.0131    9.4543 C   0  0  0  0  0  0  0  0  0  0  0  0
    1.6384    0.4644   10.6168 C   0  0  0  0  0  0  0  0  0  0  0  0
    1.0846    1.6852   10.9065 C   0  0  0  0  0  0  0  0  0  0  0  0
    0.4399    1.5684   12.1151 N   0  0  0  0  0  0  0  0  0  0  0  0
    0.5915    0.3177   12.5557 C   0  0  0  0  0  0  0  0  0  0  0  0
    1.3258   -0.4211   11.6736 C   0  0  0  0  0  0  0  0  0  0  0  0
    1.6125   -1.7405   11.9109 C   0  0  0  0  0  0  0  0  0  0  0  0
    1.1562   -2.3479   13.0610 C   0  0  0  0  0  0  0  0  0  0  0  0
    0.4090   -1.6376   13.9822 C   0  0  0  0  0  0  0  0  0  0  0  0
    0.1425   -0.3185   13.7092 C   0  0  0  0  0  0  0  0  0  0  0  0
    1.4109   -3.6780   13.3602 O   0  0  0  0  0  0  0  0  0  0  0  0
    0.4154   -4.4214   14.0217 C   0  0  0  0  0  0  0  0  0  0  0  0
    1.0788    2.9281   10.1913 C   0  0  0  0  0  0  0  0  0  0  0  0
    1.5977    3.0697    8.9420 C   0  0  0  0  0  0  0  0  0  0  0  0
    1.5778    4.2887    8.2323 C   0  0  0  0  0  0  0  0  0  0  0  0
    1.0100    5.3961    8.8189 C   0  0  0  0  0  0  0  0  0  0  0  0
    0.4874    5.2488   10.0804 C   0  0  0  0  0  0  0  0  0  0  0  0
    0.5153    4.0446   10.7627 C   0  0  0  0  0  0  0  0  0  0  0  0
  1  2  1  0
  2  3  2  0
  2  4  1  0
  4  5  1  0
  5  6  1  0
  6  7  1  0
  7  8  2  0
  8  9  1  0
  9 10  1  0
 10 11  2  0
 11 12  1  0
 12 13  2  0
 13 14  1  0
 14 15  2  0
 13 16  1  0
 16 17  1  0
  8 18  1  0
 18 19  2  0
 19 20  1  0
 20 21  2  0
 21 22  1  0
 22 23  2  0
 11  7  1  0
 15 10  1  0
 23 18  1  0
M  END
$$$$
