
     RDKit          3D

 23 25  0  0  0  0  0  0  0  0999 V2000
   -9.1263  -16.4496   -4.3666 C   0  0  0  0  0  0  0  0  0  0  0  0
   -8.6575  -16.2514   -5.7801 C   0  0  0  0  0  0  0  0  0  0  0  0
   -8.6472  -17.2174   -6.5615 O   0  0  0  0  0  0  0  0  0  0  0  0
   -8.2264  -14.9869   -6.2439 N   0  0  0  0  0  0  0  0  0  0  0  0
   -7.4853  -14.7162   -7.4397 C   0  0  0  0  0  0  0  0  0  0  0  0
   -6.0074  -14.9549   -7.3336 C   0  0  0  0  0  0  0  0  0  0  0  0
   -5.3599  -15.3453   -8.6083 C   0  0  0  0  0  0  0  0  0  0  0  0
   -4.9107  -16.5552   -9.0724 C   0  0  0  0  0  0  0  0  0  0  0  0
   -4.4121  -16.3517  -10.3372 N   0  0  0  0  0  0  0  0  0  0  0  0
   -4.5491  -15.0595  -10.6425 C   0  0  0  0  0  0  0  0  0  0  0  0
   -5.1304  -14.3775   -9.6129 C   0  0  0  0  0  0  0  0  0  0  0  0
   -5.3753  -13.0312   -9.6952 C   0  0  0  0  0  0  0  0  0  0  0  0
   -5.0326  -12.3377  -10.8361 C   0  0  0  0  0  0  0  0  0  0  0  0
   -4.4417  -12.9883  -11.9033 C   0  0  0  0  0  0  0  0  0  0  0  0
   -4.2124  -14.3368  -11.7832 C   0  0  0  0  0  0  0  0  0  0  0  0
   -5.2535  -10.9764  -10.9829 O   0  0  0  0  0  0  0  0  0  0  0  0
   -6.5806  -10.5160  -11.0726 C   0  0  0  0  0  0  0  0  0  0  0  0
   -4.9024  -17.8631   -8.4844 C   0  0  0  0  0  0  0  0  0  0  0  0
   -4.7896  -19.0057   -9.2136 C   0  0  0  0  0  0  0  0  0  0  0  0
   -4.7657  -20.2915   -8.6337 C   0  0  0  0  0  0  0  0  0  0  0  0
   -4.8601  -20.4114   -7.2663 C   0  0  0  0  0  0  0  0  0  0  0  0
   -4.9740  -19.2553   -6.5339 C   0  0  0  0  0  0  0  0  0  0  0  0
   -4.9958  -18.0012   -7.1195 C   0  0  0  0  0  0  0  0  0  0  0  0
  1  2  1  0
  2  3  2  0
  2  4  1  0
  4  5  1  0
  5  6  1  0
  6  7  1  0
  7  8  2  0
  8  9  1  0
  9 10  1  0
 10 11  2  0
 11 12  1  0
 12 13  2  0
 13 14  1  0
 14 15  2  0
 13 16  1  0
 16 17  1  0
  8 18  1  0
 18 19  2  0
 19 20  1  0
 20 21  2  0
 21 22  1  0
 22 23  2  0
 11  7  1  0
 15 10  1  0
 23 18  1  0
M  END
$$$$
