
     RDKit          3D

 23 25  0  0  0  0  0  0  0  0999 V2000
    0.8499   -2.0325   12.6035 C   0  0  0  0  0  0  0  0  0  0  0  0
    0.5155   -1.2753   11.3497 C   0  0  0  0  0  0  0  0  0  0  0  0
    0.4311   -1.8865   10.2712 O   0  0  0  0  0  0  0  0  0  0  0  0
    0.2937    0.1212   11.3682 N   0  0  0  0  0  0  0  0  0  0  0  0
   -0.0692    0.9493   10.2569 C   0  0  0  0  0  0  0  0  0  0  0  0
    0.9080    0.9404    9.1179 C   0  0  0  0  0  0  0  0  0  0  0  0
    1.9887    1.9479    9.2339 C   0  0  0  0  0  0  0  0  0  0  0  0
    1.9824    3.3138    9.1090 C   0  0  0  0  0  0  0  0  0  0  0  0
    3.2643    3.7541    9.3386 N   0  0  0  0  0  0  0  0  0  0  0  0
    4.0350    2.6952    9.5961 C   0  0  0  0  0  0  0  0  0  0  0  0
    3.3062    1.5422    9.5470 C   0  0  0  0  0  0  0  0  0  0  0  0
    3.8838    0.3208    9.7799 C   0  0  0  0  0  0  0  0  0  0  0  0
    5.2286    0.2397   10.0712 C   0  0  0  0  0  0  0  0  0  0  0  0
    6.0049    1.3821   10.1312 C   0  0  0  0  0  0  0  0  0  0  0  0
    5.3906    2.5866    9.8921 C   0  0  0  0  0  0  0  0  0  0  0  0
    5.8730   -0.9635   10.3169 O   0  0  0  0  0  0  0  0  0  0  0  0
    7.1726   -0.9327   10.8565 C   0  0  0  0  0  0  0  0  0  0  0  0
    0.9312    4.2435    8.8144 C   0  0  0  0  0  0  0  0  0  0  0  0
   -0.3751    3.8798    8.7074 C   0  0  0  0  0  0  0  0  0  0  0  0
   -1.4110    4.7972    8.4330 C   0  0  0  0  0  0  0  0  0  0  0  0
   -1.1007    6.1268    8.2629 C   0  0  0  0  0  0  0  0  0  0  0  0
    0.2193    6.4896    8.3715 C   0  0  0  0  0  0  0  0  0  0  0  0
    1.2236    5.5759    8.6414 C   0  0  0  0  0  0  0  0  0  0  0  0
  1  2  1  0
  2  3  2  0
  2  4  1  0
  4  5  1  0
  5  6  1  0
  6  7  1  0
  7  8  2  0
  8  9  1  0
  9 10  1  0
 10 11  2  0
 11 12  1  0
 12 13  2  0
 13 14  1  0
 14 15  2  0
 13 16  1  0
 16 17  1  0
  8 18  1  0
 18 19  2  0
 19 20  1  0
 20 21  2  0
 21 22  1  0
 22 23  2  0
 11  7  1  0
 15 10  1  0
 23 18  1  0
M  END
$$$$
