
     RDKit          3D

 23 25  0  0  0  0  0  0  0  0999 V2000
    4.5614   -1.2833   11.6987 C   0  0  0  0  0  0  0  0  0  0  0  0
    3.6731   -0.8460   10.5687 C   0  0  0  0  0  0  0  0  0  0  0  0
    2.8927   -1.6642   10.0535 O   0  0  0  0  0  0  0  0  0  0  0  0
    3.7043    0.4792   10.0760 N   0  0  0  0  0  0  0  0  0  0  0  0
    2.8340    1.0521    9.0928 C   0  0  0  0  0  0  0  0  0  0  0  0
    1.3696    0.9237    9.3950 C   0  0  0  0  0  0  0  0  0  0  0  0
    0.8847    1.8343   10.4590 C   0  0  0  0  0  0  0  0  0  0  0  0
    0.7593    3.1992   10.5070 C   0  0  0  0  0  0  0  0  0  0  0  0
    0.2318    3.5213   11.7349 N   0  0  0  0  0  0  0  0  0  0  0  0
    0.0387    2.3927   12.4210 C   0  0  0  0  0  0  0  0  0  0  0  0
    0.4233    1.3079   11.6873 C   0  0  0  0  0  0  0  0  0  0  0  0
    0.3174    0.0347   12.1843 C   0  0  0  0  0  0  0  0  0  0  0  0
   -0.1864   -0.1702   13.4508 C   0  0  0  0  0  0  0  0  0  0  0  0
   -0.5880    0.8996   14.2290 C   0  0  0  0  0  0  0  0  0  0  0  0
   -0.4666    2.1594   13.6966 C   0  0  0  0  0  0  0  0  0  0  0  0
   -0.3198   -1.4316   14.0115 O   0  0  0  0  0  0  0  0  0  0  0  0
    0.7297   -2.3551   13.8475 C   0  0  0  0  0  0  0  0  0  0  0  0
    1.0610    4.2228    9.5491 C   0  0  0  0  0  0  0  0  0  0  0  0
    2.0671    4.1173    8.6399 C   0  0  0  0  0  0  0  0  0  0  0  0
    2.3538    5.1177    7.6875 C   0  0  0  0  0  0  0  0  0  0  0  0
    1.5879    6.2605    7.6650 C   0  0  0  0  0  0  0  0  0  0  0  0
    0.5733    6.3630    8.5848 C   0  0  0  0  0  0  0  0  0  0  0  0
    0.3057    5.3712    9.5128 C   0  0  0  0  0  0  0  0  0  0  0  0
  1  2  1  0
  2  3  2  0
  2  4  1  0
  4  5  1  0
  5  6  1  0
  6  7  1  0
  7  8  2  0
  8  9  1  0
  9 10  1  0
 10 11  2  0
 11 12  1  0
 12 13  2  0
 13 14  1  0
 14 15  2  0
 13 16  1  0
 16 17  1  0
  8 18  1  0
 18 19  2  0
 19 20  1  0
 20 21  2  0
 21 22  1  0
 22 23  2  0
 11  7  1  0
 15 10  1  0
 23 18  1  0
M  END
$$$$
