
     RDKit          3D

 23 25  0  0  0  0  0  0  0  0999 V2000
    0.8978   -4.3553   10.8097 C   0  0  0  0  0  0  0  0  0  0  0  0
    0.0399   -3.2206   10.3263 C   0  0  0  0  0  0  0  0  0  0  0  0
   -1.1878   -3.3834   10.2246 O   0  0  0  0  0  0  0  0  0  0  0  0
    0.5984   -1.9675    9.9833 N   0  0  0  0  0  0  0  0  0  0  0  0
   -0.0979   -0.8290    9.4625 C   0  0  0  0  0  0  0  0  0  0  0  0
   -0.7806    0.0197   10.4950 C   0  0  0  0  0  0  0  0  0  0  0  0
    0.1339    0.8938   11.2671 C   0  0  0  0  0  0  0  0  0  0  0  0
    0.7382    0.7333   12.4878 C   0  0  0  0  0  0  0  0  0  0  0  0
    1.5065    1.8501   12.7168 N   0  0  0  0  0  0  0  0  0  0  0  0
    1.3798    2.6716   11.6725 C   0  0  0  0  0  0  0  0  0  0  0  0
    0.5415    2.1390   10.7362 C   0  0  0  0  0  0  0  0  0  0  0  0
    0.2574    2.8028    9.5708 C   0  0  0  0  0  0  0  0  0  0  0  0
    0.8230    4.0356    9.3253 C   0  0  0  0  0  0  0  0  0  0  0  0
    1.6778    4.6126   10.2461 C   0  0  0  0  0  0  0  0  0  0  0  0
    1.9380    3.9173   11.4012 C   0  0  0  0  0  0  0  0  0  0  0  0
    0.5771    4.7581    8.1673 O   0  0  0  0  0  0  0  0  0  0  0  0
    0.0660    6.0642    8.2850 C   0  0  0  0  0  0  0  0  0  0  0  0
    0.6905   -0.3312   13.4474 C   0  0  0  0  0  0  0  0  0  0  0  0
    1.0078   -0.1647   14.7594 C   0  0  0  0  0  0  0  0  0  0  0  0
    0.9457   -1.2085   15.7064 C   0  0  0  0  0  0  0  0  0  0  0  0
    0.5470   -2.4604   15.2982 C   0  0  0  0  0  0  0  0  0  0  0  0
    0.2277   -2.6243   13.9725 C   0  0  0  0  0  0  0  0  0  0  0  0
    0.2942   -1.5885   13.0564 C   0  0  0  0  0  0  0  0  0  0  0  0
  1  2  1  0
  2  3  2  0
  2  4  1  0
  4  5  1  0
  5  6  1  0
  6  7  1  0
  7  8  2  0
  8  9  1  0
  9 10  1  0
 10 11  2  0
 11 12  1  0
 12 13  2  0
 13 14  1  0
 14 15  2  0
 13 16  1  0
 16 17  1  0
  8 18  1  0
 18 19  2  0
 19 20  1  0
 20 21  2  0
 21 22  1  0
 22 23  2  0
 11  7  1  0
 15 10  1  0
 23 18  1  0
M  END
$$$$
