
     RDKit          3D

 23 25  0  0  0  0  0  0  0  0999 V2000
    2.1714    1.6942    7.0263 C   0  0  0  0  0  0  0  0  0  0  0  0
    3.0866    1.1100    8.0646 C   0  0  0  0  0  0  0  0  0  0  0  0
    4.2646    1.4998    8.1295 O   0  0  0  0  0  0  0  0  0  0  0  0
    2.6375    0.1235    8.9730 N   0  0  0  0  0  0  0  0  0  0  0  0
    3.2413   -0.2347   10.2217 C   0  0  0  0  0  0  0  0  0  0  0  0
    3.1501    0.8148   11.2907 C   0  0  0  0  0  0  0  0  0  0  0  0
    1.7736    1.0731   11.7755 C   0  0  0  0  0  0  0  0  0  0  0  0
    0.9254    2.1358   11.5957 C   0  0  0  0  0  0  0  0  0  0  0  0
   -0.2465    1.8427   12.2519 N   0  0  0  0  0  0  0  0  0  0  0  0
   -0.1247    0.6399   12.8175 C   0  0  0  0  0  0  0  0  0  0  0  0
    1.1052    0.1063   12.5611 C   0  0  0  0  0  0  0  0  0  0  0  0
    1.4630   -1.1277   13.0392 C   0  0  0  0  0  0  0  0  0  0  0  0
    0.5720   -1.8572   13.7968 C   0  0  0  0  0  0  0  0  0  0  0  0
   -0.6845   -1.3554   14.0811 C   0  0  0  0  0  0  0  0  0  0  0  0
   -1.0060   -0.1162   13.5847 C   0  0  0  0  0  0  0  0  0  0  0  0
    0.8715   -3.1105   14.3096 O   0  0  0  0  0  0  0  0  0  0  0  0
   -0.1504   -3.8380   14.9480 C   0  0  0  0  0  0  0  0  0  0  0  0
    1.0761    3.3714   10.8839 C   0  0  0  0  0  0  0  0  0  0  0  0
    0.1376    4.3558   10.8958 C   0  0  0  0  0  0  0  0  0  0  0  0
    0.2928    5.5777   10.2081 C   0  0  0  0  0  0  0  0  0  0  0  0
    1.4432    5.7987    9.4864 C   0  0  0  0  0  0  0  0  0  0  0  0
    2.3881    4.8021    9.4768 C   0  0  0  0  0  0  0  0  0  0  0  0
    2.2193    3.6086   10.1577 C   0  0  0  0  0  0  0  0  0  0  0  0
  1  2  1  0
  2  3  2  0
  2  4  1  0
  4  5  1  0
  5  6  1  0
  6  7  1  0
  7  8  2  0
  8  9  1  0
  9 10  1  0
 10 11  2  0
 11 12  1  0
 12 13  2  0
 13 14  1  0
 14 15  2  0
 13 16  1  0
 16 17  1  0
  8 18  1  0
 18 19  2  0
 19 20  1  0
 20 21  2  0
 21 22  1  0
 22 23  2  0
 11  7  1  0
 15 10  1  0
 23 18  1  0
M  END
$$$$
