
     RDKit          3D

 23 25  0  0  0  0  0  0  0  0999 V2000
    1.9418   -4.8477   11.4531 C   0  0  0  0  0  0  0  0  0  0  0  0
    1.3979   -3.5517   10.9224 C   0  0  0  0  0  0  0  0  0  0  0  0
    0.1789   -3.3237   10.9993 O   0  0  0  0  0  0  0  0  0  0  0  0
    2.2435   -2.5819   10.3355 N   0  0  0  0  0  0  0  0  0  0  0  0
    1.8598   -1.2949    9.8367 C   0  0  0  0  0  0  0  0  0  0  0  0
    1.8857   -0.1910   10.8532 C   0  0  0  0  0  0  0  0  0  0  0  0
    1.6967    1.1649   10.2856 C   0  0  0  0  0  0  0  0  0  0  0  0
    0.5694    1.9134   10.0622 C   0  0  0  0  0  0  0  0  0  0  0  0
    0.9722    3.1167    9.5335 N   0  0  0  0  0  0  0  0  0  0  0  0
    2.3033    3.1101    9.4340 C   0  0  0  0  0  0  0  0  0  0  0  0
    2.8168    1.9281    9.8835 C   0  0  0  0  0  0  0  0  0  0  0  0
    4.1665    1.6877    9.8807 C   0  0  0  0  0  0  0  0  0  0  0  0
    5.0362    2.6513    9.4169 C   0  0  0  0  0  0  0  0  0  0  0  0
    4.5598    3.8630    8.9521 C   0  0  0  0  0  0  0  0  0  0  0  0
    3.2020    4.0665    8.9708 C   0  0  0  0  0  0  0  0  0  0  0  0
    6.4110    2.4712    9.3876 O   0  0  0  0  0  0  0  0  0  0  0  0
    7.2336    3.5994    9.2095 C   0  0  0  0  0  0  0  0  0  0  0  0
   -0.8202    1.6434   10.2912 C   0  0  0  0  0  0  0  0  0  0  0  0
   -1.2600    0.6308   11.0857 C   0  0  0  0  0  0  0  0  0  0  0  0
   -2.6268    0.3751   11.3234 C   0  0  0  0  0  0  0  0  0  0  0  0
   -3.5720    1.1799   10.7300 C   0  0  0  0  0  0  0  0  0  0  0  0
   -3.1236    2.2009    9.9285 C   0  0  0  0  0  0  0  0  0  0  0  0
   -1.7779    2.4378    9.7060 C   0  0  0  0  0  0  0  0  0  0  0  0
  1  2  1  0
  2  3  2  0
  2  4  1  0
  4  5  1  0
  5  6  1  0
  6  7  1  0
  7  8  2  0
  8  9  1  0
  9 10  1  0
 10 11  2  0
 11 12  1  0
 12 13  2  0
 13 14  1  0
 14 15  2  0
 13 16  1  0
 16 17  1  0
  8 18  1  0
 18 19  2  0
 19 20  1  0
 20 21  2  0
 21 22  1  0
 22 23  2  0
 11  7  1  0
 15 10  1  0
 23 18  1  0
M  END
$$$$
