
     RDKit          3D

 23 25  0  0  0  0  0  0  0  0999 V2000
    4.6559   -0.7893   11.4183 C   0  0  0  0  0  0  0  0  0  0  0  0
    3.1577   -0.6933   11.3620 C   0  0  0  0  0  0  0  0  0  0  0  0
    2.5200   -1.4957   10.6596 O   0  0  0  0  0  0  0  0  0  0  0  0
    2.4536    0.2922   12.0922 N   0  0  0  0  0  0  0  0  0  0  0  0
    1.0351    0.4905   12.1227 C   0  0  0  0  0  0  0  0  0  0  0  0
    0.5072    1.4324   11.0803 C   0  0  0  0  0  0  0  0  0  0  0  0
    0.9962    2.8250   11.2134 C   0  0  0  0  0  0  0  0  0  0  0  0
    2.0749    3.4714   10.6660 C   0  0  0  0  0  0  0  0  0  0  0  0
    2.0441    4.7722   11.1095 N   0  0  0  0  0  0  0  0  0  0  0  0
    0.9821    4.9227   11.9039 C   0  0  0  0  0  0  0  0  0  0  0  0
    0.2880    3.7523   12.0117 C   0  0  0  0  0  0  0  0  0  0  0  0
   -0.8460    3.6614   12.7767 C   0  0  0  0  0  0  0  0  0  0  0  0
   -1.3074    4.7675   13.4576 C   0  0  0  0  0  0  0  0  0  0  0  0
   -0.6357    5.9732   13.3771 C   0  0  0  0  0  0  0  0  0  0  0  0
    0.4959    6.0247   12.6010 C   0  0  0  0  0  0  0  0  0  0  0  0
   -2.4471    4.7422   14.2474 O   0  0  0  0  0  0  0  0  0  0  0  0
   -2.5316    5.6315   15.3352 C   0  0  0  0  0  0  0  0  0  0  0  0
    3.1111    3.0245    9.7811 C   0  0  0  0  0  0  0  0  0  0  0  0
    2.9562    1.9824    8.9208 C   0  0  0  0  0  0  0  0  0  0  0  0
    3.9704    1.5529    8.0393 C   0  0  0  0  0  0  0  0  0  0  0  0
    5.1795    2.2095    8.0384 C   0  0  0  0  0  0  0  0  0  0  0  0
    5.3317    3.2609    8.9087 C   0  0  0  0  0  0  0  0  0  0  0  0
    4.3254    3.6693    9.7673 C   0  0  0  0  0  0  0  0  0  0  0  0
  1  2  1  0
  2  3  2  0
  2  4  1  0
  4  5  1  0
  5  6  1  0
  6  7  1  0
  7  8  2  0
  8  9  1  0
  9 10  1  0
 10 11  2  0
 11 12  1  0
 12 13  2  0
 13 14  1  0
 14 15  2  0
 13 16  1  0
 16 17  1  0
  8 18  1  0
 18 19  2  0
 19 20  1  0
 20 21  2  0
 21 22  1  0
 22 23  2  0
 11  7  1  0
 15 10  1  0
 23 18  1  0
M  END
$$$$
