
     RDKit          3D

 23 25  0  0  0  0  0  0  0  0999 V2000
   -1.0329   -2.5472   10.1971 C   0  0  0  0  0  0  0  0  0  0  0  0
   -0.1370   -1.3764    9.9078 C   0  0  0  0  0  0  0  0  0  0  0  0
   -0.5667   -0.4330    9.2229 O   0  0  0  0  0  0  0  0  0  0  0  0
    1.1883   -1.3226   10.3983 N   0  0  0  0  0  0  0  0  0  0  0  0
    2.1226   -0.2488   10.2361 C   0  0  0  0  0  0  0  0  0  0  0  0
    2.4926    0.4626   11.5047 C   0  0  0  0  0  0  0  0  0  0  0  0
    1.4457    1.3773   12.0182 C   0  0  0  0  0  0  0  0  0  0  0  0
    0.9965    2.5944   11.5731 C   0  0  0  0  0  0  0  0  0  0  0  0
   -0.0127    2.9943   12.4164 N   0  0  0  0  0  0  0  0  0  0  0  0
   -0.1800    2.0555   13.3503 C   0  0  0  0  0  0  0  0  0  0  0  0
    0.6936    1.0238   13.1619 C   0  0  0  0  0  0  0  0  0  0  0  0
    0.7093   -0.0616   13.9992 C   0  0  0  0  0  0  0  0  0  0  0  0
   -0.1702   -0.1266   15.0585 C   0  0  0  0  0  0  0  0  0  0  0  0
   -1.0723    0.8959   15.2868 C   0  0  0  0  0  0  0  0  0  0  0  0
   -1.0576    1.9661   14.4267 C   0  0  0  0  0  0  0  0  0  0  0  0
   -0.2058   -1.1957   15.9412 O   0  0  0  0  0  0  0  0  0  0  0  0
   -0.3913   -0.9312   17.3111 C   0  0  0  0  0  0  0  0  0  0  0  0
    1.3878    3.4112   10.4613 C   0  0  0  0  0  0  0  0  0  0  0  0
    0.8264    4.6207   10.1931 C   0  0  0  0  0  0  0  0  0  0  0  0
    1.2224    5.4311    9.1084 C   0  0  0  0  0  0  0  0  0  0  0  0
    2.2228    4.9903    8.2730 C   0  0  0  0  0  0  0  0  0  0  0  0
    2.7867    3.7685    8.5473 C   0  0  0  0  0  0  0  0  0  0  0  0
    2.3859    2.9859    9.6165 C   0  0  0  0  0  0  0  0  0  0  0  0
  1  2  1  0
  2  3  2  0
  2  4  1  0
  4  5  1  0
  5  6  1  0
  6  7  1  0
  7  8  2  0
  8  9  1  0
  9 10  1  0
 10 11  2  0
 11 12  1  0
 12 13  2  0
 13 14  1  0
 14 15  2  0
 13 16  1  0
 16 17  1  0
  8 18  1  0
 18 19  2  0
 19 20  1  0
 20 21  2  0
 21 22  1  0
 22 23  2  0
 11  7  1  0
 15 10  1  0
 23 18  1  0
M  END
$$$$
