tmp_mol_0_158.sdf
     RDKit          3D

 13 13  0  0  1  0  0  0  0  0999 V2000
    1.8574    3.6736    6.9397 C   0  0  0  0  0  0  0  0  0  0  0  0
    2.3509    4.7613    7.6273 C   0  0  0  0  0  0  0  0  0  0  0  0
    3.1846    5.6481    7.0049 C   0  0  0  0  0  0  0  0  0  0  0  0
    3.5702    5.5091    5.6863 C   0  0  0  0  0  0  0  0  0  0  0  0
    3.0726    4.4204    5.0079 C   0  0  0  0  0  0  0  0  0  0  0  0
    2.2311    3.5185    5.6235 C   0  0  0  0  0  0  0  0  0  0  0  0
    3.7092    6.7703    7.6723 O   0  0  0  0  0  0  0  0  0  0  0  0
    4.4266    6.4364    5.0777 O   0  0  0  0  0  0  0  0  0  0  0  0
   -0.3704    3.0194    7.4273 O   0  0  0  0  0  0  0  0  0  0  0  0
    0.7111   -0.9491    7.1645 C   0  0  0  0  0  0  0  0  0  0  0  0
    0.3759    0.3767    7.6570 N   0  0  0  0  0  4  0  0  0  0  0  0
    1.2984    1.3298    7.0786 C   0  0  0  0  0  0  0  0  0  0  0  0
    0.9609    2.7135    7.5965 C   0  0  1  0  0  0  0  0  0  0  0  0
  1  2  2  0
  1  6  1  0
  1 13  1  0
  2  3  1  0
  3  4  2  0
  3  7  1  0
  4  5  1  0
  4  8  1  0
  5  6  2  0
 13  9  1  6
 11 10  1  6
 11 12  1  0
 12 13  1  1
M  CHG  1  11   1
M  END
$$$$
