tmp_mol_0_158.sdf
     RDKit          3D

 13 13  0  0  1  0  0  0  0  0999 V2000
    1.5682    3.3241    6.9949 C   0  0  0  0  0  0  0  0  0  0  0  0
    2.4536    3.6313    5.9845 C   0  0  0  0  0  0  0  0  0  0  0  0
    3.1224    4.8235    5.9947 C   0  0  0  0  0  0  0  0  0  0  0  0
    2.9540    5.7641    6.9915 C   0  0  0  0  0  0  0  0  0  0  0  0
    2.0682    5.4488    7.9959 C   0  0  0  0  0  0  0  0  0  0  0  0
    1.3872    4.2502    7.9979 C   0  0  0  0  0  0  0  0  0  0  0  0
    4.0341    5.1738    4.9816 O   0  0  0  0  0  0  0  0  0  0  0  0
    3.6552    6.9771    6.9723 O   0  0  0  0  0  0  0  0  0  0  0  0
    0.5487    1.5955    5.7295 O   0  0  0  0  0  0  0  0  0  0  0  0
    1.6969   -1.1506    8.6339 C   0  0  0  0  0  0  0  0  0  0  0  0
    0.9945   -0.2376    7.7476 N   0  0  0  0  0  4  0  0  0  0  0  0
    1.6645    1.0445    7.7820 C   0  0  0  0  0  0  0  0  0  0  0  0
    0.8433    2.0468    6.9960 C   0  0  1  0  0  0  0  0  0  0  0  0
  1  2  2  0
  1  6  1  0
  1 13  1  0
  2  3  1  0
  3  4  2  0
  3  7  1  0
  4  5  1  0
  4  8  1  0
  5  6  2  0
 13  9  1  6
 11 10  1  6
 11 12  1  0
 12 13  1  1
M  CHG  1  11   1
M  END
$$$$
