tmp_mol_0_158.sdf
     RDKit          3D

 13 13  0  0  1  0  0  0  0  0999 V2000
    1.8598    3.2979    6.5741 C   0  0  0  0  0  0  0  0  0  0  0  0
    1.9272    4.4193    7.3724 C   0  0  0  0  0  0  0  0  0  0  0  0
    2.7591    5.4517    7.0394 C   0  0  0  0  0  0  0  0  0  0  0  0
    3.5587    5.4313    5.9138 C   0  0  0  0  0  0  0  0  0  0  0  0
    3.4847    4.3079    5.1230 C   0  0  0  0  0  0  0  0  0  0  0  0
    2.6501    3.2596    5.4471 C   0  0  0  0  0  0  0  0  0  0  0  0
    2.8563    6.6130    7.8282 O   0  0  0  0  0  0  0  0  0  0  0  0
    4.4008    6.5067    5.6008 O   0  0  0  0  0  0  0  0  0  0  0  0
    0.4700    1.5310    5.8155 O   0  0  0  0  0  0  0  0  0  0  0  0
    1.5760   -0.7301    9.1098 C   0  0  0  0  0  0  0  0  0  0  0  0
    0.9057    0.0896    8.1141 N   0  0  0  0  0  4  0  0  0  0  0  0
    1.7311    1.2455    7.8376 C   0  0  0  0  0  0  0  0  0  0  0  0
    0.9703    2.1818    6.9204 C   0  0  1  0  0  0  0  0  0  0  0  0
  1  2  2  0
  1  6  1  0
  1 13  1  0
  2  3  1  0
  3  4  2  0
  3  7  1  0
  4  5  1  0
  4  8  1  0
  5  6  2  0
 13  9  1  6
 11 10  1  6
 11 12  1  0
 12 13  1  1
M  CHG  1  11   1
M  END
$$$$
