tmp_mol_0_158.sdf
     RDKit          3D

 13 13  0  0  1  0  0  0  0  0999 V2000
    1.8738    3.1578    6.5844 C   0  0  0  0  0  0  0  0  0  0  0  0
    1.9280    4.2639    7.4046 C   0  0  0  0  0  0  0  0  0  0  0  0
    2.7430    5.3150    7.0891 C   0  0  0  0  0  0  0  0  0  0  0  0
    3.5381    5.3290    5.9602 C   0  0  0  0  0  0  0  0  0  0  0  0
    3.4774    4.2206    5.1473 C   0  0  0  0  0  0  0  0  0  0  0  0
    2.6598    3.1537    5.4537 C   0  0  0  0  0  0  0  0  0  0  0  0
    2.8263    6.4617    7.9005 O   0  0  0  0  0  0  0  0  0  0  0  0
    4.3628    6.4228    5.6654 O   0  0  0  0  0  0  0  0  0  0  0  0
    0.5014    1.3903    5.7961 O   0  0  0  0  0  0  0  0  0  0  0  0
    1.6506   -0.8902    9.0913 C   0  0  0  0  0  0  0  0  0  0  0  0
    0.9350   -0.0434    8.1514 N   0  0  0  0  0  4  0  0  0  0  0  0
    1.7836    1.0749    7.8004 C   0  0  0  0  0  0  0  0  0  0  0  0
    1.0024    2.0218    6.9118 C   0  0  1  0  0  0  0  0  0  0  0  0
  1  2  2  0
  1  6  1  0
  1 13  1  0
  2  3  1  0
  3  4  2  0
  3  7  1  0
  4  5  1  0
  4  8  1  0
  5  6  2  0
 13  9  1  6
 11 10  1  6
 11 12  1  0
 12 13  1  1
M  CHG  1  11   1
M  END
$$$$
