tmp_mol_0_158.sdf
     RDKit          3D

 13 13  0  0  1  0  0  0  0  0999 V2000
    1.7458    3.2635    6.5308 C   0  0  0  0  0  0  0  0  0  0  0  0
    1.8724    4.3637    7.3510 C   0  0  0  0  0  0  0  0  0  0  0  0
    2.7041    5.3907    7.0009 C   0  0  0  0  0  0  0  0  0  0  0  0
    3.4458    5.3851    5.8362 C   0  0  0  0  0  0  0  0  0  0  0  0
    3.3130    4.2828    5.0237 C   0  0  0  0  0  0  0  0  0  0  0  0
    2.4779    3.2402    5.3647 C   0  0  0  0  0  0  0  0  0  0  0  0
    2.8607    6.5305    7.8111 O   0  0  0  0  0  0  0  0  0  0  0  0
    4.2894    6.4543    5.5065 O   0  0  0  0  0  0  0  0  0  0  0  0
    0.2366    1.5823    5.8066 O   0  0  0  0  0  0  0  0  0  0  0  0
    1.5527   -0.8881    8.8673 C   0  0  0  0  0  0  0  0  0  0  0  0
    0.8372   -0.0094    7.9571 N   0  0  0  0  0  4  0  0  0  0  0  0
    1.6660    1.1450    7.6845 C   0  0  0  0  0  0  0  0  0  0  0  0
    0.8558    2.1535    6.8951 C   0  0  1  0  0  0  0  0  0  0  0  0
  1  2  2  0
  1  6  1  0
  1 13  1  0
  2  3  1  0
  3  4  2  0
  3  7  1  0
  4  5  1  0
  4  8  1  0
  5  6  2  0
 13  9  1  6
 11 10  1  6
 11 12  1  0
 12 13  1  1
M  CHG  1  11   1
M  END
$$$$
