tmp_mol_0_158.sdf
     RDKit          3D

 13 13  0  0  1  0  0  0  0  0999 V2000
    1.7435    3.2788    6.3125 C   0  0  0  0  0  0  0  0  0  0  0  0
    1.8453    4.3379    7.1883 C   0  0  0  0  0  0  0  0  0  0  0  0
    2.6816    5.3829    6.9100 C   0  0  0  0  0  0  0  0  0  0  0  0
    3.4523    5.4362    5.7655 C   0  0  0  0  0  0  0  0  0  0  0  0
    3.3442    4.3745    4.8971 C   0  0  0  0  0  0  0  0  0  0  0  0
    2.5048    3.3145    5.1655 C   0  0  0  0  0  0  0  0  0  0  0  0
    2.8133    6.4821    7.7785 O   0  0  0  0  0  0  0  0  0  0  0  0
    4.2999    6.5224    5.5099 O   0  0  0  0  0  0  0  0  0  0  0  0
    0.4855    1.4521    5.4701 O   0  0  0  0  0  0  0  0  0  0  0  0
    1.3271   -0.7298    8.8608 C   0  0  0  0  0  0  0  0  0  0  0  0
    0.7648    0.0431    7.7658 N   0  0  0  0  0  4  0  0  0  0  0  0
    1.5290    1.2636    7.6233 C   0  0  0  0  0  0  0  0  0  0  0  0
    0.8488    2.1500    6.5994 C   0  0  1  0  0  0  0  0  0  0  0  0
  1  2  2  0
  1  6  1  0
  1 13  1  0
  2  3  1  0
  3  4  2  0
  3  7  1  0
  4  5  1  0
  4  8  1  0
  5  6  2  0
 13  9  1  6
 11 10  1  6
 11 12  1  0
 12 13  1  1
M  CHG  1  11   1
M  END
$$$$
