tmp_mol_0_158.sdf
     RDKit          3D

 13 13  0  0  1  0  0  0  0  0999 V2000
    1.9735    3.3689    6.6187 C   0  0  0  0  0  0  0  0  0  0  0  0
    2.0220    4.4757    7.4383 C   0  0  0  0  0  0  0  0  0  0  0  0
    2.8508    5.5199    7.1359 C   0  0  0  0  0  0  0  0  0  0  0  0
    3.6657    5.5260    6.0212 C   0  0  0  0  0  0  0  0  0  0  0  0
    3.6106    4.4170    5.2088 C   0  0  0  0  0  0  0  0  0  0  0  0
    2.7793    3.3570    5.5021 C   0  0  0  0  0  0  0  0  0  0  0  0
    2.9289    6.6670    7.9472 O   0  0  0  0  0  0  0  0  0  0  0  0
    4.5042    6.6129    5.7396 O   0  0  0  0  0  0  0  0  0  0  0  0
    0.5799    1.6280    5.8087 O   0  0  0  0  0  0  0  0  0  0  0  0
    1.7023   -0.7257    9.0457 C   0  0  0  0  0  0  0  0  0  0  0  0
    1.0156    0.1293    8.0918 N   0  0  0  0  0  4  0  0  0  0  0  0
    1.8557    1.2735    7.8106 C   0  0  0  0  0  0  0  0  0  0  0  0
    1.0875    2.2403    6.9321 C   0  0  1  0  0  0  0  0  0  0  0  0
  1  2  2  0
  1  6  1  0
  1 13  1  0
  2  3  1  0
  3  4  2  0
  3  7  1  0
  4  5  1  0
  4  8  1  0
  5  6  2  0
 13  9  1  6
 11 10  1  6
 11 12  1  0
 12 13  1  1
M  CHG  1  11   1
M  END
$$$$
