tmp_mol_0_158.sdf
     RDKit          3D

 13 13  0  0  1  0  0  0  0  0999 V2000
    2.6108    3.2415    6.4277 C   0  0  0  0  0  0  0  0  0  0  0  0
    2.8926    4.0569    7.5024 C   0  0  0  0  0  0  0  0  0  0  0  0
    3.2805    5.3521    7.3002 C   0  0  0  0  0  0  0  0  0  0  0  0
    3.4090    5.9036    6.0408 C   0  0  0  0  0  0  0  0  0  0  0  0
    3.1257    5.0821    4.9741 C   0  0  0  0  0  0  0  0  0  0  0  0
    2.7335    3.7742    5.1639 C   0  0  0  0  0  0  0  0  0  0  0  0
    3.5768    6.2158    8.3708 O   0  0  0  0  0  0  0  0  0  0  0  0
    3.8090    7.2354    5.8679 O   0  0  0  0  0  0  0  0  0  0  0  0
    3.0993    1.1176    7.3655 O   0  0  0  0  0  0  0  0  0  0  0  0
   -0.9063    0.5076    8.1284 C   0  0  0  0  0  0  0  0  0  0  0  0
    0.4616    0.5078    7.6369 N   0  0  0  0  0  4  0  0  0  0  0  0
    0.8192    1.8613    7.2707 C   0  0  0  0  0  0  0  0  0  0  0  0
    2.1931    1.8482    6.6311 C   0  0  1  0  0  0  0  0  0  0  0  0
  1  2  2  0
  1  6  1  0
  1 13  1  0
  2  3  1  0
  3  4  2  0
  3  7  1  0
  4  5  1  0
  4  8  1  0
  5  6  2  0
 13  9  1  1
 11 10  1  6
 11 12  1  0
 12 13  1  1
M  CHG  1  11   1
M  END
$$$$
