tmp_mol_0_158.sdf
     RDKit          3D

 13 13  0  0  1  0  0  0  0  0999 V2000
    1.6512    3.3325    6.5471 C   0  0  0  0  0  0  0  0  0  0  0  0
    1.7638    4.4353    7.3659 C   0  0  0  0  0  0  0  0  0  0  0  0
    2.5679    5.4805    7.0057 C   0  0  0  0  0  0  0  0  0  0  0  0
    3.2946    5.4915    5.8316 C   0  0  0  0  0  0  0  0  0  0  0  0
    3.1760    4.3865    5.0205 C   0  0  0  0  0  0  0  0  0  0  0  0
    2.3686    3.3257    5.3717 C   0  0  0  0  0  0  0  0  0  0  0  0
    2.7093    6.6235    7.8142 O   0  0  0  0  0  0  0  0  0  0  0  0
    4.1100    6.5792    5.4916 O   0  0  0  0  0  0  0  0  0  0  0  0
    0.2491    1.5561    5.8347 O   0  0  0  0  0  0  0  0  0  0  0  0
    1.5233   -0.7196    9.0568 C   0  0  0  0  0  0  0  0  0  0  0  0
    0.8078    0.0943    8.0881 N   0  0  0  0  0  4  0  0  0  0  0  0
    1.6024    1.2678    7.7960 C   0  0  0  0  0  0  0  0  0  0  0  0
    0.7908    2.2030    6.9222 C   0  0  1  0  0  0  0  0  0  0  0  0
  1  2  2  0
  1  6  1  0
  1 13  1  0
  2  3  1  0
  3  4  2  0
  3  7  1  0
  4  5  1  0
  4  8  1  0
  5  6  2  0
 13  9  1  6
 11 10  1  6
 11 12  1  0
 12 13  1  1
M  CHG  1  11   1
M  END
$$$$
