tmp_mol_0_158.sdf
     RDKit          3D

 13 13  0  0  1  0  0  0  0  0999 V2000
    1.7655    3.1837    6.5123 C   0  0  0  0  0  0  0  0  0  0  0  0
    1.8278    4.2652    7.3643 C   0  0  0  0  0  0  0  0  0  0  0  0
    2.6592    5.3139    7.0851 C   0  0  0  0  0  0  0  0  0  0  0  0
    3.4632    5.3493    5.9631 C   0  0  0  0  0  0  0  0  0  0  0  0
    3.3943    4.2655    5.1184 C   0  0  0  0  0  0  0  0  0  0  0  0
    2.5603    3.2014    5.3880 C   0  0  0  0  0  0  0  0  0  0  0  0
    2.7512    6.4356    7.9297 O   0  0  0  0  0  0  0  0  0  0  0  0
    4.3046    6.4400    5.7059 O   0  0  0  0  0  0  0  0  0  0  0  0
    0.4391    1.4088    5.6643 O   0  0  0  0  0  0  0  0  0  0  0  0
    1.4177   -0.8887    8.9681 C   0  0  0  0  0  0  0  0  0  0  0  0
    0.8003   -0.0740    7.9348 N   0  0  0  0  0  4  0  0  0  0  0  0
    1.6062    1.1121    7.7405 C   0  0  0  0  0  0  0  0  0  0  0  0
    0.8766    2.0507    6.8005 C   0  0  1  0  0  0  0  0  0  0  0  0
  1  2  2  0
  1  6  1  0
  1 13  1  0
  2  3  1  0
  3  4  2  0
  3  7  1  0
  4  5  1  0
  4  8  1  0
  5  6  2  0
 13  9  1  6
 11 10  1  6
 11 12  1  0
 12 13  1  1
M  CHG  1  11   1
M  END
$$$$
