tmp_mol_0_158.sdf
     RDKit          3D

 13 13  0  0  1  0  0  0  0  0999 V2000
    1.8290    3.5165    6.7838 C   0  0  0  0  0  0  0  0  0  0  0  0
    1.9503    4.6578    7.5468 C   0  0  0  0  0  0  0  0  0  0  0  0
    2.7967    5.6584    7.1581 C   0  0  0  0  0  0  0  0  0  0  0  0
    3.5589    5.5854    6.0090 C   0  0  0  0  0  0  0  0  0  0  0  0
    3.4313    4.4425    5.2537 C   0  0  0  0  0  0  0  0  0  0  0  0
    2.5814    3.4259    5.6342 C   0  0  0  0  0  0  0  0  0  0  0  0
    2.9484    6.8385    7.9094 O   0  0  0  0  0  0  0  0  0  0  0  0
    4.4174    6.6293    5.6386 O   0  0  0  0  0  0  0  0  0  0  0  0
    0.3562    1.7787    6.1208 O   0  0  0  0  0  0  0  0  0  0  0  0
    1.5335   -0.7353    8.8377 C   0  0  0  0  0  0  0  0  0  0  0  0
    0.7880    0.4913    8.6090 N   0  0  0  0  0  4  0  0  0  0  0  0
    1.6958    1.4924    8.0917 C   0  0  0  0  0  0  0  0  0  0  0  0
    0.9232    2.4342    7.1901 C   0  0  1  0  0  0  0  0  0  0  0  0
  1  2  2  0
  1  6  1  0
  1 13  1  0
  2  3  1  0
  3  4  2  0
  3  7  1  0
  4  5  1  0
  4  8  1  0
  5  6  2  0
 13  9  1  6
 11 10  1  6
 11 12  1  0
 12 13  1  1
M  CHG  1  11   1
M  END
$$$$
