tmp_mol_0_158.sdf
     RDKit          3D

 13 13  0  0  1  0  0  0  0  0999 V2000
    2.5787    3.2678    6.4802 C   0  0  0  0  0  0  0  0  0  0  0  0
    2.8113    4.0961    7.5568 C   0  0  0  0  0  0  0  0  0  0  0  0
    3.2171    5.3862    7.3573 C   0  0  0  0  0  0  0  0  0  0  0  0
    3.4123    5.9199    6.0989 C   0  0  0  0  0  0  0  0  0  0  0  0
    3.1777    5.0858    5.0302 C   0  0  0  0  0  0  0  0  0  0  0  0
    2.7682    3.7828    5.2172 C   0  0  0  0  0  0  0  0  0  0  0  0
    3.4648    6.2626    8.4301 O   0  0  0  0  0  0  0  0  0  0  0  0
    3.8289    7.2470    5.9288 O   0  0  0  0  0  0  0  0  0  0  0  0
    3.0732    1.1152    7.3466 O   0  0  0  0  0  0  0  0  0  0  0  0
   -0.9381    0.5790    8.2515 C   0  0  0  0  0  0  0  0  0  0  0  0
    0.3913    0.5489    7.6647 N   0  0  0  0  0  4  0  0  0  0  0  0
    0.8086    1.9089    7.3995 C   0  0  0  0  0  0  0  0  0  0  0  0
    2.1424    1.8799    6.6806 C   0  0  1  0  0  0  0  0  0  0  0  0
  1  2  2  0
  1  6  1  0
  1 13  1  0
  2  3  1  0
  3  4  2  0
  3  7  1  0
  4  5  1  0
  4  8  1  0
  5  6  2  0
 13  9  1  1
 11 10  1  6
 11 12  1  0
 12 13  1  1
M  CHG  1  11   1
M  END
$$$$
