tmp_mol_0_158.sdf
     RDKit          3D

 13 13  0  0  1  0  0  0  0  0999 V2000
    1.8032    3.2575    6.6194 C   0  0  0  0  0  0  0  0  0  0  0  0
    1.8560    4.3731    7.4268 C   0  0  0  0  0  0  0  0  0  0  0  0
    2.6711    5.4209    7.1000 C   0  0  0  0  0  0  0  0  0  0  0  0
    3.4674    5.4220    5.9719 C   0  0  0  0  0  0  0  0  0  0  0  0
    3.4081    4.3042    5.1719 C   0  0  0  0  0  0  0  0  0  0  0  0
    2.5906    3.2407    5.4898 C   0  0  0  0  0  0  0  0  0  0  0  0
    2.7530    6.5769    7.8982 O   0  0  0  0  0  0  0  0  0  0  0  0
    4.2921    6.5127    5.6654 O   0  0  0  0  0  0  0  0  0  0  0  0
    0.4228    1.4879    5.8502 O   0  0  0  0  0  0  0  0  0  0  0  0
    1.5808   -0.7738    9.1527 C   0  0  0  0  0  0  0  0  0  0  0  0
    0.8820    0.0471    8.1778 N   0  0  0  0  0  4  0  0  0  0  0  0
    1.7169    1.1821    7.8483 C   0  0  0  0  0  0  0  0  0  0  0  0
    0.9319    2.1251    6.9589 C   0  0  1  0  0  0  0  0  0  0  0  0
  1  2  2  0
  1  6  1  0
  1 13  1  0
  2  3  1  0
  3  4  2  0
  3  7  1  0
  4  5  1  0
  4  8  1  0
  5  6  2  0
 13  9  1  6
 11 10  1  6
 11 12  1  0
 12 13  1  1
M  CHG  1  11   1
M  END
$$$$
