tmp_mol_0_158.sdf
     RDKit          3D

 13 13  0  0  1  0  0  0  0  0999 V2000
    1.7325    3.2807    6.1705 C   0  0  0  0  0  0  0  0  0  0  0  0
    1.8913    4.1851    7.1982 C   0  0  0  0  0  0  0  0  0  0  0  0
    2.6819    5.2874    7.0285 C   0  0  0  0  0  0  0  0  0  0  0  0
    3.3494    5.5514    5.8490 C   0  0  0  0  0  0  0  0  0  0  0  0
    3.1850    4.6431    4.8287 C   0  0  0  0  0  0  0  0  0  0  0  0
    2.3906    3.5274    4.9864 C   0  0  0  0  0  0  0  0  0  0  0  0
    2.8692    6.2335    8.0532 O   0  0  0  0  0  0  0  0  0  0  0  0
    4.1525    6.6909    5.7076 O   0  0  0  0  0  0  0  0  0  0  0  0
    0.9376    1.2385    5.2614 O   0  0  0  0  0  0  0  0  0  0  0  0
    0.8890   -0.4437    9.0259 C   0  0  0  0  0  0  0  0  0  0  0  0
    0.5837    0.1520    7.7358 N   0  0  0  0  0  4  0  0  0  0  0  0
    1.2936    1.4085    7.6290 C   0  0  0  0  0  0  0  0  0  0  0  0
    0.8860    2.0926    6.3396 C   0  0  1  0  0  0  0  0  0  0  0  0
  1  2  2  0
  1  6  1  0
  1 13  1  0
  2  3  1  0
  3  4  2  0
  3  7  1  0
  4  5  1  0
  4  8  1  0
  5  6  2  0
 13  9  1  6
 11 10  1  6
 11 12  1  0
 12 13  1  1
M  CHG  1  11   1
M  END
$$$$
