tmp_mol_0_158.sdf
     RDKit          3D

 13 13  0  0  1  0  0  0  0  0999 V2000
    1.5495    3.2853    6.7782 C   0  0  0  0  0  0  0  0  0  0  0  0
    2.4399    3.6153    5.7794 C   0  0  0  0  0  0  0  0  0  0  0  0
    3.1305    4.7938    5.8352 C   0  0  0  0  0  0  0  0  0  0  0  0
    2.9799    5.6977    6.8681 C   0  0  0  0  0  0  0  0  0  0  0  0
    2.0890    5.3598    7.8606 C   0  0  0  0  0  0  0  0  0  0  0  0
    1.3861    4.1747    7.8167 C   0  0  0  0  0  0  0  0  0  0  0  0
    4.0479    5.1665    4.8354 O   0  0  0  0  0  0  0  0  0  0  0  0
    3.7033    6.8975    6.8953 O   0  0  0  0  0  0  0  0  0  0  0  0
    0.5849    1.5747    5.4471 O   0  0  0  0  0  0  0  0  0  0  0  0
    1.3940   -1.1502    8.5060 C   0  0  0  0  0  0  0  0  0  0  0  0
    0.8632   -0.2664    7.4815 N   0  0  0  0  0  4  0  0  0  0  0  0
    1.5473    1.0056    7.5710 C   0  0  0  0  0  0  0  0  0  0  0  0
    0.8013    2.0224    6.7305 C   0  0  1  0  0  0  0  0  0  0  0  0
  1  2  2  0
  1  6  1  0
  1 13  1  0
  2  3  1  0
  3  4  2  0
  3  7  1  0
  4  5  1  0
  4  8  1  0
  5  6  2  0
 13  9  1  6
 11 10  1  6
 11 12  1  0
 12 13  1  1
M  CHG  1  11   1
M  END
$$$$
