tmp_mol_0_158.sdf
     RDKit          3D

 13 13  0  0  1  0  0  0  0  0999 V2000
    1.9663    3.3307    6.2761 C   0  0  0  0  0  0  0  0  0  0  0  0
    2.2101    4.0955    7.3963 C   0  0  0  0  0  0  0  0  0  0  0  0
    2.9547    5.2380    7.3006 C   0  0  0  0  0  0  0  0  0  0  0  0
    3.4912    5.6802    6.1076 C   0  0  0  0  0  0  0  0  0  0  0  0
    3.2426    4.9104    4.9947 C   0  0  0  0  0  0  0  0  0  0  0  0
    2.4934    3.7561    5.0772 C   0  0  0  0  0  0  0  0  0  0  0  0
    3.2257    6.0455    8.4208 O   0  0  0  0  0  0  0  0  0  0  0  0
    4.2503    6.8563    6.0436 O   0  0  0  0  0  0  0  0  0  0  0  0
    1.6858    1.0693    5.6158 O   0  0  0  0  0  0  0  0  0  0  0  0
    0.1896    0.1366    9.3379 C   0  0  0  0  0  0  0  0  0  0  0  0
    0.3955    0.4412    7.9317 N   0  0  0  0  0  4  0  0  0  0  0  0
    1.0385    1.7335    7.8296 C   0  0  0  0  0  0  0  0  0  0  0  0
    1.1679    2.1012    6.3651 C   0  0  1  0  0  0  0  0  0  0  0  0
  1  2  2  0
  1  6  1  0
  1 13  1  0
  2  3  1  0
  3  4  2  0
  3  7  1  0
  4  5  1  0
  4  8  1  0
  5  6  2  0
 13  9  1  6
 11 10  1  6
 11 12  1  0
 12 13  1  1
M  CHG  1  11   1
M  END
$$$$
