tmp_mol_0_158.sdf
     RDKit          3D

 13 13  0  0  1  0  0  0  0  0999 V2000
    1.6316    3.0428    6.5621 C   0  0  0  0  0  0  0  0  0  0  0  0
    2.9005    3.2750    6.0772 C   0  0  0  0  0  0  0  0  0  0  0  0
    3.3944    4.5486    6.0244 C   0  0  0  0  0  0  0  0  0  0  0  0
    2.6697    5.6469    6.4428 C   0  0  0  0  0  0  0  0  0  0  0  0
    1.4041    5.4055    6.9253 C   0  0  0  0  0  0  0  0  0  0  0  0
    0.8938    4.1262    6.9841 C   0  0  0  0  0  0  0  0  0  0  0  0
    4.6846    4.8267    5.5361 O   0  0  0  0  0  0  0  0  0  0  0  0
    3.2055    6.9400    6.3753 O   0  0  0  0  0  0  0  0  0  0  0  0
    1.2706    0.9754    5.4556 O   0  0  0  0  0  0  0  0  0  0  0  0
    1.6487   -0.9598    9.1461 C   0  0  0  0  0  0  0  0  0  0  0  0
    1.1620   -0.3515    7.9190 N   0  0  0  0  0  4  0  0  0  0  0  0
    1.7162    0.9811    7.8141 C   0  0  0  0  0  0  0  0  0  0  0  0
    1.0890    1.6794    6.6243 C   0  0  1  0  0  0  0  0  0  0  0  0
  1  2  2  0
  1  6  1  0
  1 13  1  0
  2  3  1  0
  3  4  2  0
  3  7  1  0
  4  5  1  0
  4  8  1  0
  5  6  2  0
 13  9  1  6
 11 10  1  6
 11 12  1  0
 12 13  1  1
M  CHG  1  11   1
M  END
$$$$
