tmp_mol_0_158.sdf
     RDKit          3D

 13 13  0  0  1  0  0  0  0  0999 V2000
    1.8615    3.3071    6.7573 C   0  0  0  0  0  0  0  0  0  0  0  0
    1.9003    4.4141    7.5773 C   0  0  0  0  0  0  0  0  0  0  0  0
    2.7152    5.4683    7.2718 C   0  0  0  0  0  0  0  0  0  0  0  0
    3.5252    5.4845    6.1536 C   0  0  0  0  0  0  0  0  0  0  0  0
    3.4799    4.3753    5.3409 C   0  0  0  0  0  0  0  0  0  0  0  0
    2.6626    3.3053    5.6373 C   0  0  0  0  0  0  0  0  0  0  0  0
    2.7830    6.6159    8.0833 O   0  0  0  0  0  0  0  0  0  0  0  0
    4.3494    6.5815    5.8689 O   0  0  0  0  0  0  0  0  0  0  0  0
    0.5809    1.4778    5.9557 O   0  0  0  0  0  0  0  0  0  0  0  0
    1.5742   -0.6978    9.3295 C   0  0  0  0  0  0  0  0  0  0  0  0
    0.9411    0.0814    8.2784 N   0  0  0  0  0  4  0  0  0  0  0  0
    1.7246    1.2776    8.0563 C   0  0  0  0  0  0  0  0  0  0  0  0
    0.9904    2.1679    7.0740 C   0  0  1  0  0  0  0  0  0  0  0  0
  1  2  2  0
  1  6  1  0
  1 13  1  0
  2  3  1  0
  3  4  2  0
  3  7  1  0
  4  5  1  0
  4  8  1  0
  5  6  2  0
 13  9  1  6
 11 10  1  6
 11 12  1  0
 12 13  1  1
M  CHG  1  11   1
M  END
$$$$
