tmp_mol_0_158.sdf
     RDKit          3D

 13 13  0  0  1  0  0  0  0  0999 V2000
    1.7703    3.2221    6.6840 C   0  0  0  0  0  0  0  0  0  0  0  0
    1.8159    4.3166    7.5202 C   0  0  0  0  0  0  0  0  0  0  0  0
    2.6325    5.3729    7.2269 C   0  0  0  0  0  0  0  0  0  0  0  0
    3.4376    5.4036    6.1055 C   0  0  0  0  0  0  0  0  0  0  0  0
    3.3855    4.3067    5.2765 C   0  0  0  0  0  0  0  0  0  0  0  0
    2.5664    3.2348    5.5605 C   0  0  0  0  0  0  0  0  0  0  0  0
    2.7072    6.5081    8.0551 O   0  0  0  0  0  0  0  0  0  0  0  0
    4.2637    6.5023    5.8335 O   0  0  0  0  0  0  0  0  0  0  0  0
    0.4934    1.3993    5.8619 O   0  0  0  0  0  0  0  0  0  0  0  0
    1.4644   -0.7996    9.2277 C   0  0  0  0  0  0  0  0  0  0  0  0
    0.8442   -0.0175    8.1711 N   0  0  0  0  0  4  0  0  0  0  0  0
    1.6262    1.1827    7.9668 C   0  0  0  0  0  0  0  0  0  0  0  0
    0.8973    2.0807    6.9875 C   0  0  1  0  0  0  0  0  0  0  0  0
  1  2  2  0
  1  6  1  0
  1 13  1  0
  2  3  1  0
  3  4  2  0
  3  7  1  0
  4  5  1  0
  4  8  1  0
  5  6  2  0
 13  9  1  6
 11 10  1  6
 11 12  1  0
 12 13  1  1
M  CHG  1  11   1
M  END
$$$$
