tmp_mol_0_158.sdf
     RDKit          3D

 13 13  0  0  1  0  0  0  0  0999 V2000
    1.8113    3.1388    6.4027 C   0  0  0  0  0  0  0  0  0  0  0  0
    1.8977    4.2053    7.2712 C   0  0  0  0  0  0  0  0  0  0  0  0
    2.7066    5.2676    6.9779 C   0  0  0  0  0  0  0  0  0  0  0  0
    3.4638    5.3318    5.8250 C   0  0  0  0  0  0  0  0  0  0  0  0
    3.3712    4.2626    4.9639 C   0  0  0  0  0  0  0  0  0  0  0  0
    2.5594    3.1851    5.2475 C   0  0  0  0  0  0  0  0  0  0  0  0
    2.8219    6.3749    7.8385 O   0  0  0  0  0  0  0  0  0  0  0  0
    4.2832    6.4357    5.5540 O   0  0  0  0  0  0  0  0  0  0  0  0
    0.4820    1.3557    5.5766 O   0  0  0  0  0  0  0  0  0  0  0  0
    1.5882   -0.9513    8.8429 C   0  0  0  0  0  0  0  0  0  0  0  0
    0.9122   -0.1257    7.8560 N   0  0  0  0  0  4  0  0  0  0  0  0
    1.7159    1.0528    7.6129 C   0  0  0  0  0  0  0  0  0  0  0  0
    0.9461    1.9914    6.7058 C   0  0  1  0  0  0  0  0  0  0  0  0
  1  2  2  0
  1  6  1  0
  1 13  1  0
  2  3  1  0
  3  4  2  0
  3  7  1  0
  4  5  1  0
  4  8  1  0
  5  6  2  0
 13  9  1  6
 11 10  1  6
 11 12  1  0
 12 13  1  1
M  CHG  1  11   1
M  END
$$$$
