
     RDKit          3D

 30 30  0  0  0  0  0  0  0  0999 V2000
   -9.3494    1.1776    9.1870 C   0  0  0  0  0  0  0  0  0  0  0  0
   -8.6474    1.8652    8.0807 C   0  0  0  0  0  0  0  0  0  0  0  0
   -7.3900    2.1934    8.0780 C   0  0  0  0  0  0  0  0  0  0  0  0
   -6.7826    2.8946    6.8849 C   0  0  0  0  0  0  0  0  0  0  0  0
   -7.4074    2.6131    5.5800 C   0  0  0  0  0  0  0  0  0  0  0  0
   -8.7101    1.8924    5.6048 C   0  0  0  0  0  0  0  0  0  0  0  0
   -9.4802    2.2056    6.8697 C   0  0  0  0  0  0  0  0  0  0  0  0
   -5.2724    2.6452    6.8518 C   0  0  0  0  0  0  0  0  0  0  0  0
   -6.9337    4.3889    7.1788 C   0  0  0  0  0  0  0  0  0  0  0  0
   -6.4845    1.9469    9.1836 C   0  0  0  0  0  0  0  0  0  0  0  0
   -5.5051    1.1612    9.3823 C   0  0  0  0  0  0  0  0  0  0  0  0
   -4.8425    1.0150   10.6747 C   0  0  0  0  0  0  0  0  0  0  0  0
   -3.6719    0.2901   10.6971 C   0  0  0  0  0  0  0  0  0  0  0  0
   -2.9970   -0.0088    9.4834 C   0  0  0  0  0  0  0  0  0  0  0  0
   -2.0327   -0.8076    9.1822 C   0  0  0  0  0  0  0  0  0  0  0  0
   -1.3738   -1.0150    7.9184 C   0  0  0  0  0  0  0  0  0  0  0  0
   -1.9140   -0.4089    6.8310 C   0  0  0  0  0  0  0  0  0  0  0  0
   -1.1487    0.1443    5.7374 C   0  0  0  0  0  0  0  0  0  0  0  0
   -1.4298   -0.2087    4.4212 N   0  0  0  0  0  0  0  0  0  0  0  0
   -1.9270    0.6435    3.4410 C   0  0  0  0  0  0  0  0  0  0  0  0
   -3.3290    0.3447    3.0187 C   0  0  0  0  0  0  0  0  0  0  0  0
   -3.5525    0.6828    1.5429 C   0  0  0  0  0  0  0  0  0  0  0  0
   -3.2708   -0.5570    0.7677 C   0  0  0  0  0  0  0  0  0  0  0  0
   -1.8394   -0.7286    0.3435 C   0  0  0  0  0  0  0  0  0  0  0  0
   -1.3831   -2.0915    0.6797 C   0  0  0  0  0  0  0  0  0  0  0  0
   -1.8691   -2.6852    1.6710 O   0  0  0  0  0  0  0  0  0  0  0  0
   -0.4349   -2.7250   -0.0758 O   0  0  0  0  0  0  0  0  0  0  0  0
   -1.8301   -0.5556   -1.1100 N   0  0  0  0  0  0  0  0  0  0  0  0
   -0.1355   -1.7805    7.7954 C   0  0  0  0  0  0  0  0  0  0  0  0
   -5.2928    1.5594   11.9406 C   0  0  0  0  0  0  0  0  0  0  0  0
  1  2  1  0
  2  3  2  0
  3  4  1  0
  4  5  1  0
  5  6  1  0
  6  7  1  0
  4  8  1  0
  4  9  1  0
  3 10  1  0
 10 11  2  3
 11 12  1  0
 12 13  2  3
 13 14  1  0
 14 15  2  3
 15 16  1  0
 16 17  2  3
 17 18  1  0
 18 19  1  0
 19 20  1  0
 20 21  1  0
 21 22  1  0
 22 23  1  0
 23 24  1  0
 24 25  1  0
 25 26  2  0
 25 27  1  0
 24 28  1  0
 16 29  1  0
 12 30  1  0
  7  2  1  0
M  END
$$$$
