
     RDKit          3D

 30 30  0  0  0  0  0  0  0  0999 V2000
   -4.4990    5.7797    6.0702 C   0  0  0  0  0  0  0  0  0  0  0  0
   -4.3717    5.3939    4.6474 C   0  0  0  0  0  0  0  0  0  0  0  0
   -4.8581    4.3122    4.1161 C   0  0  0  0  0  0  0  0  0  0  0  0
   -4.6639    4.0257    2.6450 C   0  0  0  0  0  0  0  0  0  0  0  0
   -4.5243    5.2021    1.7681 C   0  0  0  0  0  0  0  0  0  0  0  0
   -4.3258    6.5161    2.4399 C   0  0  0  0  0  0  0  0  0  0  0  0
   -3.6083    6.3474    3.7620 C   0  0  0  0  0  0  0  0  0  0  0  0
   -5.7649    3.0830    2.1518 C   0  0  0  0  0  0  0  0  0  0  0  0
   -3.3727    3.2082    2.5631 C   0  0  0  0  0  0  0  0  0  0  0  0
   -5.5901    3.3026    4.8565 C   0  0  0  0  0  0  0  0  0  0  0  0
   -5.2800    2.2134    5.4340 C   0  0  0  0  0  0  0  0  0  0  0  0
   -6.2434    1.3802    6.1468 C   0  0  0  0  0  0  0  0  0  0  0  0
   -5.8225    0.8113    7.3281 C   0  0  0  0  0  0  0  0  0  0  0  0
   -4.7304    1.3756    8.0399 C   0  0  0  0  0  0  0  0  0  0  0  0
   -4.0904    1.0234    9.1006 C   0  0  0  0  0  0  0  0  0  0  0  0
   -4.5736    0.3681   10.2887 C   0  0  0  0  0  0  0  0  0  0  0  0
   -3.6541   -0.2475   11.0743 C   0  0  0  0  0  0  0  0  0  0  0  0
   -3.8494   -1.5287   11.7132 C   0  0  0  0  0  0  0  0  0  0  0  0
   -2.7706   -2.3702   11.9661 N   0  0  0  0  0  0  0  0  0  0  0  0
   -2.3481   -3.4151   11.1512 C   0  0  0  0  0  0  0  0  0  0  0  0
   -0.9650   -3.2528   10.6090 C   0  0  0  0  0  0  0  0  0  0  0  0
    0.0028   -4.2594   11.2353 C   0  0  0  0  0  0  0  0  0  0  0  0
    0.9718   -3.4772   12.0518 C   0  0  0  0  0  0  0  0  0  0  0  0
    1.7271   -4.2752   13.0769 C   0  0  0  0  0  0  0  0  0  0  0  0
    2.5238   -5.3194   12.4032 C   0  0  0  0  0  0  0  0  0  0  0  0
    2.2892   -5.6077   11.2061 O   0  0  0  0  0  0  0  0  0  0  0  0
    3.5218   -5.9821   13.0635 O   0  0  0  0  0  0  0  0  0  0  0  0
    2.6251   -3.3275   13.7387 N   0  0  0  0  0  0  0  0  0  0  0  0
   -5.9770    0.4103   10.6925 C   0  0  0  0  0  0  0  0  0  0  0  0
   -7.6037    1.0919    5.7365 C   0  0  0  0  0  0  0  0  0  0  0  0
  1  2  1  0
  2  3  2  0
  3  4  1  0
  4  5  1  0
  5  6  1  0
  6  7  1  0
  4  8  1  0
  4  9  1  0
  3 10  1  0
 10 11  2  3
 11 12  1  0
 12 13  2  3
 13 14  1  0
 14 15  2  3
 15 16  1  0
 16 17  2  3
 17 18  1  0
 18 19  1  0
 19 20  1  0
 20 21  1  0
 21 22  1  0
 22 23  1  0
 23 24  1  0
 24 25  1  0
 25 26  2  0
 25 27  1  0
 24 28  1  0
 16 29  1  0
 12 30  1  0
  7  2  1  0
M  END
$$$$
