
     RDKit          3D

 30 30  0  0  0  0  0  0  0  0999 V2000
  -10.5603   -0.8720   11.0222 C   0  0  0  0  0  0  0  0  0  0  0  0
   -9.2156   -0.9893   11.6282 C   0  0  0  0  0  0  0  0  0  0  0  0
   -8.1723   -0.2964   11.2812 C   0  0  0  0  0  0  0  0  0  0  0  0
   -6.8469   -0.5048   11.9769 C   0  0  0  0  0  0  0  0  0  0  0  0
   -6.9138   -0.9658   13.3752 C   0  0  0  0  0  0  0  0  0  0  0  0
   -8.2432   -1.4251   13.8641 C   0  0  0  0  0  0  0  0  0  0  0  0
   -9.0670   -2.0045   12.7342 C   0  0  0  0  0  0  0  0  0  0  0  0
   -5.9870    0.7546   11.8395 C   0  0  0  0  0  0  0  0  0  0  0  0
   -6.1249   -1.5725   11.1518 C   0  0  0  0  0  0  0  0  0  0  0  0
   -8.1710    0.6928   10.2207 C   0  0  0  0  0  0  0  0  0  0  0  0
   -7.2693    1.3177    9.5786 C   0  0  0  0  0  0  0  0  0  0  0  0
   -7.5588    2.2999    8.5385 C   0  0  0  0  0  0  0  0  0  0  0  0
   -6.4798    2.8629    7.8944 C   0  0  0  0  0  0  0  0  0  0  0  0
   -6.1460    2.4541    6.5755 C   0  0  0  0  0  0  0  0  0  0  0  0
   -5.1664    2.7299    5.7863 C   0  0  0  0  0  0  0  0  0  0  0  0
   -4.8646    2.2040    4.4798 C   0  0  0  0  0  0  0  0  0  0  0  0
   -3.7166    1.4925    4.3481 C   0  0  0  0  0  0  0  0  0  0  0  0
   -2.3951    2.0740    4.2890 C   0  0  0  0  0  0  0  0  0  0  0  0
   -1.2691    1.2697    4.1443 N   0  0  0  0  0  0  0  0  0  0  0  0
    0.0478    1.7159    4.1100 C   0  0  0  0  0  0  0  0  0  0  0  0
    0.6405    1.7811    2.7398 C   0  0  0  0  0  0  0  0  0  0  0  0
    1.5137    0.5582    2.4496 C   0  0  0  0  0  0  0  0  0  0  0  0
    1.4248    0.3009    0.9855 C   0  0  0  0  0  0  0  0  0  0  0  0
    1.8629   -1.0705    0.5547 C   0  0  0  0  0  0  0  0  0  0  0  0
    0.6890   -1.9613    0.4687 C   0  0  0  0  0  0  0  0  0  0  0  0
   -0.2015   -1.9062    1.3492 O   0  0  0  0  0  0  0  0  0  0  0  0
    0.5517   -2.8507   -0.5615 O   0  0  0  0  0  0  0  0  0  0  0  0
    2.4469   -0.9032   -0.7770 N   0  0  0  0  0  0  0  0  0  0  0  0
   -5.7725    2.3534    3.3450 C   0  0  0  0  0  0  0  0  0  0  0  0
   -8.8720    2.7424    8.1123 C   0  0  0  0  0  0  0  0  0  0  0  0
  1  2  1  0
  2  3  2  0
  3  4  1  0
  4  5  1  0
  5  6  1  0
  6  7  1  0
  4  8  1  0
  4  9  1  0
  3 10  1  0
 10 11  2  3
 11 12  1  0
 12 13  2  3
 13 14  1  0
 14 15  2  3
 15 16  1  0
 16 17  2  3
 17 18  1  0
 18 19  1  0
 19 20  1  0
 20 21  1  0
 21 22  1  0
 22 23  1  0
 23 24  1  0
 24 25  1  0
 25 26  2  0
 25 27  1  0
 24 28  1  0
 16 29  1  0
 12 30  1  0
  7  2  1  0
M  END
$$$$
