
     RDKit          3D

 30 30  0  0  0  0  0  0  0  0999 V2000
  -10.4253   -0.1926   10.0935 C   0  0  0  0  0  0  0  0  0  0  0  0
  -11.4575    0.6605    9.4642 C   0  0  0  0  0  0  0  0  0  0  0  0
  -11.2218    1.7015    8.7228 C   0  0  0  0  0  0  0  0  0  0  0  0
  -12.3630    2.4966    8.1316 C   0  0  0  0  0  0  0  0  0  0  0  0
  -13.6053    1.7491    7.8666 C   0  0  0  0  0  0  0  0  0  0  0  0
  -13.6963    0.3791    8.4427 C   0  0  0  0  0  0  0  0  0  0  0  0
  -12.8927    0.2728    9.7210 C   0  0  0  0  0  0  0  0  0  0  0  0
  -11.8807    3.2468    6.8871 C   0  0  0  0  0  0  0  0  0  0  0  0
  -12.6674    3.5870    9.1615 C   0  0  0  0  0  0  0  0  0  0  0  0
   -9.8933    2.1960    8.4169 C   0  0  0  0  0  0  0  0  0  0  0  0
   -8.7268    1.6907    8.4155 C   0  0  0  0  0  0  0  0  0  0  0  0
   -7.5189    2.4601    8.1334 C   0  0  0  0  0  0  0  0  0  0  0  0
   -6.7701    2.0692    7.0459 C   0  0  0  0  0  0  0  0  0  0  0  0
   -5.4040    1.7173    7.2123 C   0  0  0  0  0  0  0  0  0  0  0  0
   -4.5098    1.2449    6.4149 C   0  0  0  0  0  0  0  0  0  0  0  0
   -4.5917    0.9709    5.0033 C   0  0  0  0  0  0  0  0  0  0  0  0
   -3.6535    0.1436    4.4771 C   0  0  0  0  0  0  0  0  0  0  0  0
   -2.2487    0.4637    4.3672 C   0  0  0  0  0  0  0  0  0  0  0  0
   -1.7469    1.0848    3.2278 N   0  0  0  0  0  0  0  0  0  0  0  0
   -0.4418    1.5338    3.0564 C   0  0  0  0  0  0  0  0  0  0  0  0
    0.6066    0.5373    3.4322 C   0  0  0  0  0  0  0  0  0  0  0  0
    0.8814   -0.4430    2.2896 C   0  0  0  0  0  0  0  0  0  0  0  0
    1.8931   -1.4154    2.7880 C   0  0  0  0  0  0  0  0  0  0  0  0
    1.8791   -2.7528    2.1029 C   0  0  0  0  0  0  0  0  0  0  0  0
    3.1701   -3.4344    2.3205 C   0  0  0  0  0  0  0  0  0  0  0  0
    3.1898   -4.6038    2.7715 O   0  0  0  0  0  0  0  0  0  0  0  0
    4.3541   -2.8115    2.0357 O   0  0  0  0  0  0  0  0  0  0  0  0
    0.8089   -3.5187    2.7438 N   0  0  0  0  0  0  0  0  0  0  0  0
   -5.6697    1.4895    4.1646 C   0  0  0  0  0  0  0  0  0  0  0  0
   -7.0277    3.5991    8.8839 C   0  0  0  0  0  0  0  0  0  0  0  0
  1  2  1  0
  2  3  2  0
  3  4  1  0
  4  5  1  0
  5  6  1  0
  6  7  1  0
  4  8  1  0
  4  9  1  0
  3 10  1  0
 10 11  2  3
 11 12  1  0
 12 13  2  3
 13 14  1  0
 14 15  2  3
 15 16  1  0
 16 17  2  3
 17 18  1  0
 18 19  1  0
 19 20  1  0
 20 21  1  0
 21 22  1  0
 22 23  1  0
 23 24  1  0
 24 25  1  0
 25 26  2  0
 25 27  1  0
 24 28  1  0
 16 29  1  0
 12 30  1  0
  7  2  1  0
M  END
$$$$
