
     RDKit          3D

 30 30  0  0  0  0  0  0  0  0999 V2000
  -13.5254    4.6497    8.5847 C   0  0  0  0  0  0  0  0  0  0  0  0
  -13.9900    3.4336    7.8813 C   0  0  0  0  0  0  0  0  0  0  0  0
  -13.2239    2.5821    7.2675 C   0  0  0  0  0  0  0  0  0  0  0  0
  -13.8162    1.3717    6.5832 C   0  0  0  0  0  0  0  0  0  0  0  0
  -15.0750    0.8567    7.1511 C   0  0  0  0  0  0  0  0  0  0  0  0
  -15.7593    1.7214    8.1518 C   0  0  0  0  0  0  0  0  0  0  0  0
  -15.4781    3.1851    7.8875 C   0  0  0  0  0  0  0  0  0  0  0  0
  -12.7574    0.2714    6.4705 C   0  0  0  0  0  0  0  0  0  0  0  0
  -14.0838    1.8165    5.1435 C   0  0  0  0  0  0  0  0  0  0  0  0
  -11.7833    2.7132    7.1655 C   0  0  0  0  0  0  0  0  0  0  0  0
  -10.7959    2.3280    7.8675 C   0  0  0  0  0  0  0  0  0  0  0  0
   -9.4095    2.6580    7.5524 C   0  0  0  0  0  0  0  0  0  0  0  0
   -8.5550    2.8434    8.6162 C   0  0  0  0  0  0  0  0  0  0  0  0
   -7.5302    1.8955    8.8791 C   0  0  0  0  0  0  0  0  0  0  0  0
   -6.5568    1.8574    9.7215 C   0  0  0  0  0  0  0  0  0  0  0  0
   -5.3006    1.1574    9.6411 C   0  0  0  0  0  0  0  0  0  0  0  0
   -4.3891    1.6205    8.7487 C   0  0  0  0  0  0  0  0  0  0  0  0
   -3.1432    0.9600    8.4336 C   0  0  0  0  0  0  0  0  0  0  0  0
   -2.4862    1.2141    7.2337 N   0  0  0  0  0  0  0  0  0  0  0  0
   -2.6456    0.4960    6.0534 C   0  0  0  0  0  0  0  0  0  0  0  0
   -1.6880    0.8722    4.9695 C   0  0  0  0  0  0  0  0  0  0  0  0
   -1.9456    0.0694    3.6923 C   0  0  0  0  0  0  0  0  0  0  0  0
   -0.6735    0.0682    2.9182 C   0  0  0  0  0  0  0  0  0  0  0  0
    0.0676   -1.2391    2.9176 C   0  0  0  0  0  0  0  0  0  0  0  0
   -0.8575   -2.3327    2.5611 C   0  0  0  0  0  0  0  0  0  0  0  0
   -0.7088   -3.4672    3.0731 O   0  0  0  0  0  0  0  0  0  0  0  0
   -1.8825   -2.1307    1.6782 O   0  0  0  0  0  0  0  0  0  0  0  0
    1.0968   -1.1144    1.8844 N   0  0  0  0  0  0  0  0  0  0  0  0
   -4.9677    0.0393   10.5206 C   0  0  0  0  0  0  0  0  0  0  0  0
   -8.8389    2.8087    6.2281 C   0  0  0  0  0  0  0  0  0  0  0  0
  1  2  1  0
  2  3  2  0
  3  4  1  0
  4  5  1  0
  5  6  1  0
  6  7  1  0
  4  8  1  0
  4  9  1  0
  3 10  1  0
 10 11  2  3
 11 12  1  0
 12 13  2  3
 13 14  1  0
 14 15  2  3
 15 16  1  0
 16 17  2  3
 17 18  1  0
 18 19  1  0
 19 20  1  0
 20 21  1  0
 21 22  1  0
 22 23  1  0
 23 24  1  0
 24 25  1  0
 25 26  2  0
 25 27  1  0
 24 28  1  0
 16 29  1  0
 12 30  1  0
  7  2  1  0
M  END
$$$$
