
     RDKit          3D

 30 30  0  0  0  0  0  0  0  0999 V2000
   -3.7805    1.5627   10.8754 C   0  0  0  0  0  0  0  0  0  0  0  0
   -4.8408    0.6288   11.3148 C   0  0  0  0  0  0  0  0  0  0  0  0
   -6.0371    0.5603   10.8117 C   0  0  0  0  0  0  0  0  0  0  0  0
   -7.0374   -0.4394   11.3447 C   0  0  0  0  0  0  0  0  0  0  0  0
   -6.4762   -1.6763   11.9170 C   0  0  0  0  0  0  0  0  0  0  0  0
   -5.0055   -1.6974   12.1494 C   0  0  0  0  0  0  0  0  0  0  0  0
   -4.4818   -0.3076   12.4418 C   0  0  0  0  0  0  0  0  0  0  0  0
   -8.0886   -0.7409   10.2732 C   0  0  0  0  0  0  0  0  0  0  0  0
   -7.7948    0.3016   12.4490 C   0  0  0  0  0  0  0  0  0  0  0  0
   -6.5188    1.4155    9.7441 C   0  0  0  0  0  0  0  0  0  0  0  0
   -6.0441    1.8208    8.6367 C   0  0  0  0  0  0  0  0  0  0  0  0
   -6.7288    2.7761    7.7713 C   0  0  0  0  0  0  0  0  0  0  0  0
   -6.6665    2.5453    6.4151 C   0  0  0  0  0  0  0  0  0  0  0  0
   -5.4114    2.3220    5.7885 C   0  0  0  0  0  0  0  0  0  0  0  0
   -4.9590    2.5607    4.6066 C   0  0  0  0  0  0  0  0  0  0  0  0
   -4.3961    1.6542    3.6391 C   0  0  0  0  0  0  0  0  0  0  0  0
   -4.0868    0.4043    4.0676 C   0  0  0  0  0  0  0  0  0  0  0  0
   -2.8516   -0.2823    3.7663 C   0  0  0  0  0  0  0  0  0  0  0  0
   -1.7195   -0.0887    4.5515 N   0  0  0  0  0  0  0  0  0  0  0  0
   -0.4807   -0.6885    4.3513 C   0  0  0  0  0  0  0  0  0  0  0  0
   -0.1248   -0.9021    2.9157 C   0  0  0  0  0  0  0  0  0  0  0  0
    0.9298   -2.0000    2.7586 C   0  0  0  0  0  0  0  0  0  0  0  0
    1.5487   -1.8163    1.4167 C   0  0  0  0  0  0  0  0  0  0  0  0
    2.9530   -1.2815    1.4335 C   0  0  0  0  0  0  0  0  0  0  0  0
    3.7004   -1.8157    0.2782 C   0  0  0  0  0  0  0  0  0  0  0  0
    4.8172   -2.3571    0.4541 O   0  0  0  0  0  0  0  0  0  0  0  0
    3.1938   -1.7329   -0.9898 O   0  0  0  0  0  0  0  0  0  0  0  0
    2.8287    0.1713    1.3047 N   0  0  0  0  0  0  0  0  0  0  0  0
   -4.2220    2.0150    2.2342 C   0  0  0  0  0  0  0  0  0  0  0  0
   -7.4720    3.9459    8.1968 C   0  0  0  0  0  0  0  0  0  0  0  0
  1  2  1  0
  2  3  2  0
  3  4  1  0
  4  5  1  0
  5  6  1  0
  6  7  1  0
  4  8  1  0
  4  9  1  0
  3 10  1  0
 10 11  2  3
 11 12  1  0
 12 13  2  3
 13 14  1  0
 14 15  2  3
 15 16  1  0
 16 17  2  3
 17 18  1  0
 18 19  1  0
 19 20  1  0
 20 21  1  0
 21 22  1  0
 22 23  1  0
 23 24  1  0
 24 25  1  0
 25 26  2  0
 25 27  1  0
 24 28  1  0
 16 29  1  0
 12 30  1  0
  7  2  1  0
M  END
$$$$
