
     RDKit          3D

 30 30  0  0  0  0  0  0  0  0999 V2000
   -2.3713   -1.4748    3.6976 C   0  0  0  0  0  0  0  0  0  0  0  0
   -2.5071   -0.9179    2.3335 C   0  0  0  0  0  0  0  0  0  0  0  0
   -3.0969    0.2009    2.0343 C   0  0  0  0  0  0  0  0  0  0  0  0
   -3.1720    0.6687    0.5992 C   0  0  0  0  0  0  0  0  0  0  0  0
   -2.0787    0.2269   -0.2850 C   0  0  0  0  0  0  0  0  0  0  0  0
   -1.1751   -0.8303    0.2472 C   0  0  0  0  0  0  0  0  0  0  0  0
   -1.9077   -1.7342    1.2154 C   0  0  0  0  0  0  0  0  0  0  0  0
   -3.3493    2.1889    0.5592 C   0  0  0  0  0  0  0  0  0  0  0  0
   -4.4866    0.0996    0.0607 C   0  0  0  0  0  0  0  0  0  0  0  0
   -3.7334    1.0682    3.0068 C   0  0  0  0  0  0  0  0  0  0  0  0
   -4.9194    1.2085    3.4423 C   0  0  0  0  0  0  0  0  0  0  0  0
   -5.2676    2.0880    4.5541 C   0  0  0  0  0  0  0  0  0  0  0  0
   -5.2990    1.5235    5.8097 C   0  0  0  0  0  0  0  0  0  0  0  0
   -5.5793    2.3297    6.9452 C   0  0  0  0  0  0  0  0  0  0  0  0
   -6.4245    2.2312    7.9119 C   0  0  0  0  0  0  0  0  0  0  0  0
   -6.1891    2.0744    9.3242 C   0  0  0  0  0  0  0  0  0  0  0  0
   -5.7114    0.8754    9.7435 C   0  0  0  0  0  0  0  0  0  0  0  0
   -4.3110    0.5716    9.9290 C   0  0  0  0  0  0  0  0  0  0  0  0
   -3.8759   -0.7458   10.0336 N   0  0  0  0  0  0  0  0  0  0  0  0
   -2.9792   -1.3748    9.1765 C   0  0  0  0  0  0  0  0  0  0  0  0
   -1.8976   -0.4848    8.6557 C   0  0  0  0  0  0  0  0  0  0  0  0
   -0.5608   -1.2242    8.5640 C   0  0  0  0  0  0  0  0  0  0  0  0
    0.0831   -1.1213    9.9028 C   0  0  0  0  0  0  0  0  0  0  0  0
    1.3084   -1.9720   10.0845 C   0  0  0  0  0  0  0  0  0  0  0  0
    2.2662   -1.7003    8.9947 C   0  0  0  0  0  0  0  0  0  0  0  0
    2.2640   -2.4203    7.9686 O   0  0  0  0  0  0  0  0  0  0  0  0
    3.1612   -0.6696    9.0821 O   0  0  0  0  0  0  0  0  0  0  0  0
    1.8937   -1.5617   11.3619 N   0  0  0  0  0  0  0  0  0  0  0  0
   -6.3790    3.1654   10.2772 C   0  0  0  0  0  0  0  0  0  0  0  0
   -5.5826    3.5006    4.4696 C   0  0  0  0  0  0  0  0  0  0  0  0
  1  2  1  0
  2  3  2  0
  3  4  1  0
  4  5  1  0
  5  6  1  0
  6  7  1  0
  4  8  1  0
  4  9  1  0
  3 10  1  0
 10 11  2  3
 11 12  1  0
 12 13  2  3
 13 14  1  0
 14 15  2  3
 15 16  1  0
 16 17  2  3
 17 18  1  0
 18 19  1  0
 19 20  1  0
 20 21  1  0
 21 22  1  0
 22 23  1  0
 23 24  1  0
 24 25  1  0
 25 26  2  0
 25 27  1  0
 24 28  1  0
 16 29  1  0
 12 30  1  0
  7  2  1  0
M  END
$$$$
