
     RDKit          3D

 30 30  0  0  0  0  0  0  0  0999 V2000
  -10.6599    0.3546   10.3418 C   0  0  0  0  0  0  0  0  0  0  0  0
   -9.7741   -0.2267   11.3747 C   0  0  0  0  0  0  0  0  0  0  0  0
   -8.4837   -0.0810   11.4260 C   0  0  0  0  0  0  0  0  0  0  0  0
   -7.6825   -0.7243   12.5344 C   0  0  0  0  0  0  0  0  0  0  0  0
   -8.3885   -0.9250   13.8125 C   0  0  0  0  0  0  0  0  0  0  0  0
   -9.8637   -0.7230   13.7996 C   0  0  0  0  0  0  0  0  0  0  0  0
  -10.4455   -1.0546   12.4422 C   0  0  0  0  0  0  0  0  0  0  0  0
   -6.3678    0.0355   12.7303 C   0  0  0  0  0  0  0  0  0  0  0  0
   -7.2737   -2.0948   11.9897 C   0  0  0  0  0  0  0  0  0  0  0  0
   -7.7121    0.6676   10.4527 C   0  0  0  0  0  0  0  0  0  0  0  0
   -6.5436    1.1675   10.4277 C   0  0  0  0  0  0  0  0  0  0  0  0
   -6.0536    2.0093    9.3405 C   0  0  0  0  0  0  0  0  0  0  0  0
   -5.1948    1.4242    8.4370 C   0  0  0  0  0  0  0  0  0  0  0  0
   -5.0734    1.9545    7.1249 C   0  0  0  0  0  0  0  0  0  0  0  0
   -4.3797    1.6137    6.0947 C   0  0  0  0  0  0  0  0  0  0  0  0
   -4.5622    1.9623    4.7092 C   0  0  0  0  0  0  0  0  0  0  0  0
   -3.5092    2.5306    4.0692 C   0  0  0  0  0  0  0  0  0  0  0  0
   -3.0590    2.1621    2.7466 C   0  0  0  0  0  0  0  0  0  0  0  0
   -1.8882    1.4313    2.5707 N   0  0  0  0  0  0  0  0  0  0  0  0
   -0.9611    1.6171    1.5508 C   0  0  0  0  0  0  0  0  0  0  0  0
   -1.4091    1.1223    0.2137 C   0  0  0  0  0  0  0  0  0  0  0  0
   -2.2435   -0.1543    0.3408 C   0  0  0  0  0  0  0  0  0  0  0  0
   -1.7907   -1.0760   -0.7376 C   0  0  0  0  0  0  0  0  0  0  0  0
   -0.3466   -0.9344   -1.1284 C   0  0  0  0  0  0  0  0  0  0  0  0
    0.4072   -2.1206   -0.6774 C   0  0  0  0  0  0  0  0  0  0  0  0
    0.6931   -2.2537    0.5358 O   0  0  0  0  0  0  0  0  0  0  0  0
    0.8012   -3.0856   -1.5632 O   0  0  0  0  0  0  0  0  0  0  0  0
   -0.3326   -0.8745   -2.5909 N   0  0  0  0  0  0  0  0  0  0  0  0
   -5.7923    1.6624    3.9802 C   0  0  0  0  0  0  0  0  0  0  0  0
   -6.3826    3.4030    9.1142 C   0  0  0  0  0  0  0  0  0  0  0  0
  1  2  1  0
  2  3  2  0
  3  4  1  0
  4  5  1  0
  5  6  1  0
  6  7  1  0
  4  8  1  0
  4  9  1  0
  3 10  1  0
 10 11  2  3
 11 12  1  0
 12 13  2  3
 13 14  1  0
 14 15  2  3
 15 16  1  0
 16 17  2  3
 17 18  1  0
 18 19  1  0
 19 20  1  0
 20 21  1  0
 21 22  1  0
 22 23  1  0
 23 24  1  0
 24 25  1  0
 25 26  2  0
 25 27  1  0
 24 28  1  0
 16 29  1  0
 12 30  1  0
  7  2  1  0
M  END
$$$$
