
     RDKit          3D

 30 30  0  0  0  0  0  0  0  0999 V2000
   -2.3317    0.7525    8.5641 C   0  0  0  0  0  0  0  0  0  0  0  0
   -2.8672   -0.2638    9.4967 C   0  0  0  0  0  0  0  0  0  0  0  0
   -4.0433   -0.2311   10.0486 C   0  0  0  0  0  0  0  0  0  0  0  0
   -4.4810   -1.3315   10.9876 C   0  0  0  0  0  0  0  0  0  0  0  0
   -3.8837   -2.6586   10.7545 C   0  0  0  0  0  0  0  0  0  0  0  0
   -2.7351   -2.7173    9.8087 C   0  0  0  0  0  0  0  0  0  0  0  0
   -1.9546   -1.4205    9.8209 C   0  0  0  0  0  0  0  0  0  0  0  0
   -6.0100   -1.4009   11.0262 C   0  0  0  0  0  0  0  0  0  0  0  0
   -4.0681   -0.8558   12.3824 C   0  0  0  0  0  0  0  0  0  0  0  0
   -5.0075    0.8323    9.8420 C   0  0  0  0  0  0  0  0  0  0  0  0
   -5.4473    1.4592    8.8273 C   0  0  0  0  0  0  0  0  0  0  0  0
   -6.3278    2.6196    8.9201 C   0  0  0  0  0  0  0  0  0  0  0  0
   -6.6710    3.2382    7.7387 C   0  0  0  0  0  0  0  0  0  0  0  0
   -7.2876    2.4929    6.6984 C   0  0  0  0  0  0  0  0  0  0  0  0
   -7.6455    2.7834    5.4959 C   0  0  0  0  0  0  0  0  0  0  0  0
   -8.3387    1.9767    4.5246 C   0  0  0  0  0  0  0  0  0  0  0  0
   -7.5852    1.3634    3.5772 C   0  0  0  0  0  0  0  0  0  0  0  0
   -6.2802    1.8139    3.1507 C   0  0  0  0  0  0  0  0  0  0  0  0
   -5.5391    1.0796    2.2302 N   0  0  0  0  0  0  0  0  0  0  0  0
   -4.2508    1.3802    1.8010 C   0  0  0  0  0  0  0  0  0  0  0  0
   -3.3422    1.8751    2.8794 C   0  0  0  0  0  0  0  0  0  0  0  0
   -2.6981    0.7159    3.6435 C   0  0  0  0  0  0  0  0  0  0  0  0
   -1.4297    0.3843    2.9374 C   0  0  0  0  0  0  0  0  0  0  0  0
   -1.0982   -1.0803    2.8828 C   0  0  0  0  0  0  0  0  0  0  0  0
    0.1346   -1.2802    2.0959 C   0  0  0  0  0  0  0  0  0  0  0  0
    0.0817   -1.2822    0.8436 O   0  0  0  0  0  0  0  0  0  0  0  0
    1.3428   -1.4626    2.7108 O   0  0  0  0  0  0  0  0  0  0  0  0
   -0.8640   -1.4889    4.2687 N   0  0  0  0  0  0  0  0  0  0  0  0
   -9.7815    1.7528    4.5768 C   0  0  0  0  0  0  0  0  0  0  0  0
   -6.8808    3.1871   10.1342 C   0  0  0  0  0  0  0  0  0  0  0  0
  1  2  1  0
  2  3  2  0
  3  4  1  0
  4  5  1  0
  5  6  1  0
  6  7  1  0
  4  8  1  0
  4  9  1  0
  3 10  1  0
 10 11  2  3
 11 12  1  0
 12 13  2  3
 13 14  1  0
 14 15  2  3
 15 16  1  0
 16 17  2  3
 17 18  1  0
 18 19  1  0
 19 20  1  0
 20 21  1  0
 21 22  1  0
 22 23  1  0
 23 24  1  0
 24 25  1  0
 25 26  2  0
 25 27  1  0
 24 28  1  0
 16 29  1  0
 12 30  1  0
  7  2  1  0
M  END
$$$$
