
     RDKit          3D

 30 30  0  0  0  0  0  0  0  0999 V2000
  -11.3616   -0.5462    9.8059 C   0  0  0  0  0  0  0  0  0  0  0  0
  -11.7638    0.8752    9.8916 C   0  0  0  0  0  0  0  0  0  0  0  0
  -10.9582    1.8907    9.7977 C   0  0  0  0  0  0  0  0  0  0  0  0
  -11.4881    3.3023    9.9002 C   0  0  0  0  0  0  0  0  0  0  0  0
  -12.8809    3.5056    9.4630 C   0  0  0  0  0  0  0  0  0  0  0  0
  -13.6909    2.2796    9.2219 C   0  0  0  0  0  0  0  0  0  0  0  0
  -13.2325    1.1424   10.1095 C   0  0  0  0  0  0  0  0  0  0  0  0
  -10.5301    4.2669    9.1958 C   0  0  0  0  0  0  0  0  0  0  0  0
  -11.3927    3.6592   11.3853 C   0  0  0  0  0  0  0  0  0  0  0  0
   -9.5246    1.7749    9.6120 C   0  0  0  0  0  0  0  0  0  0  0  0
   -8.7423    0.8501    9.2262 C   0  0  0  0  0  0  0  0  0  0  0  0
   -7.2893    0.9863    9.2009 C   0  0  0  0  0  0  0  0  0  0  0  0
   -6.6421    0.5560    8.0641 C   0  0  0  0  0  0  0  0  0  0  0  0
   -6.1736    1.5001    7.1118 C   0  0  0  0  0  0  0  0  0  0  0  0
   -5.5687    1.3881    5.9803 C   0  0  0  0  0  0  0  0  0  0  0  0
   -5.7955    2.0929    4.7449 C   0  0  0  0  0  0  0  0  0  0  0  0
   -4.7010    2.5069    4.0576 C   0  0  0  0  0  0  0  0  0  0  0  0
   -3.4455    1.7932    4.0106 C   0  0  0  0  0  0  0  0  0  0  0  0
   -2.3492    2.3244    3.3384 N   0  0  0  0  0  0  0  0  0  0  0  0
   -1.0388    2.3348    3.8042 C   0  0  0  0  0  0  0  0  0  0  0  0
   -0.7166    1.2333    4.7614 C   0  0  0  0  0  0  0  0  0  0  0  0
   -0.7898   -0.1364    4.0826 C   0  0  0  0  0  0  0  0  0  0  0  0
    0.5212   -0.8039    4.3132 C   0  0  0  0  0  0  0  0  0  0  0  0
    0.5367   -1.8004    5.4378 C   0  0  0  0  0  0  0  0  0  0  0  0
    1.5339   -2.8513    5.1549 C   0  0  0  0  0  0  0  0  0  0  0  0
    2.2557   -3.2916    6.0803 O   0  0  0  0  0  0  0  0  0  0  0  0
    1.6857   -3.3594    3.8939 O   0  0  0  0  0  0  0  0  0  0  0  0
    0.9412   -1.0521    6.6291 N   0  0  0  0  0  0  0  0  0  0  0  0
   -7.1329    2.3034    4.1957 C   0  0  0  0  0  0  0  0  0  0  0  0
   -6.4563    1.5326   10.2543 C   0  0  0  0  0  0  0  0  0  0  0  0
  1  2  1  0
  2  3  2  0
  3  4  1  0
  4  5  1  0
  5  6  1  0
  6  7  1  0
  4  8  1  0
  4  9  1  0
  3 10  1  0
 10 11  2  3
 11 12  1  0
 12 13  2  3
 13 14  1  0
 14 15  2  3
 15 16  1  0
 16 17  2  3
 17 18  1  0
 18 19  1  0
 19 20  1  0
 20 21  1  0
 21 22  1  0
 22 23  1  0
 23 24  1  0
 24 25  1  0
 25 26  2  0
 25 27  1  0
 24 28  1  0
 16 29  1  0
 12 30  1  0
  7  2  1  0
M  END
$$$$
