
     RDKit          3D

 30 30  0  0  0  0  0  0  0  0999 V2000
   -1.1062    3.1435   13.3170 C   0  0  0  0  0  0  0  0  0  0  0  0
   -1.1647    4.5515   12.8661 C   0  0  0  0  0  0  0  0  0  0  0  0
   -1.4640    4.9432   11.6636 C   0  0  0  0  0  0  0  0  0  0  0  0
   -1.4926    6.4149   11.3210 C   0  0  0  0  0  0  0  0  0  0  0  0
   -1.8173    7.3323   12.4279 C   0  0  0  0  0  0  0  0  0  0  0  0
   -1.8214    6.7502   13.7985 C   0  0  0  0  0  0  0  0  0  0  0  0
   -0.8437    5.5994   13.9028 C   0  0  0  0  0  0  0  0  0  0  0  0
   -2.4026    6.6470   10.1117 C   0  0  0  0  0  0  0  0  0  0  0  0
   -0.0811    6.7384   10.8257 C   0  0  0  0  0  0  0  0  0  0  0  0
   -1.7694    4.0423   10.5690 C   0  0  0  0  0  0  0  0  0  0  0  0
   -2.8103    3.7785    9.8887 C   0  0  0  0  0  0  0  0  0  0  0  0
   -2.8660    2.7213    8.8837 C   0  0  0  0  0  0  0  0  0  0  0  0
   -3.7538    2.8940    7.8453 C   0  0  0  0  0  0  0  0  0  0  0  0
   -5.0208    2.2525    7.8785 C   0  0  0  0  0  0  0  0  0  0  0  0
   -6.0526    2.2941    7.1090 C   0  0  0  0  0  0  0  0  0  0  0  0
   -6.1869    1.8946    5.7317 C   0  0  0  0  0  0  0  0  0  0  0  0
   -6.2796    2.8826    4.8061 C   0  0  0  0  0  0  0  0  0  0  0  0
   -5.5376    2.9156    3.5667 C   0  0  0  0  0  0  0  0  0  0  0  0
   -4.4368    2.0868    3.3735 N   0  0  0  0  0  0  0  0  0  0  0  0
   -4.3516    1.0539    2.4461 C   0  0  0  0  0  0  0  0  0  0  0  0
   -3.5654   -0.1286    2.9117 C   0  0  0  0  0  0  0  0  0  0  0  0
   -2.6265   -0.6419    1.8176 C   0  0  0  0  0  0  0  0  0  0  0  0
   -1.2361   -0.3909    2.2879 C   0  0  0  0  0  0  0  0  0  0  0  0
   -0.3628   -1.6113    2.3661 C   0  0  0  0  0  0  0  0  0  0  0  0
   -0.1755   -2.1738    1.0143 C   0  0  0  0  0  0  0  0  0  0  0  0
    0.9194   -2.6993    0.7037 O   0  0  0  0  0  0  0  0  0  0  0  0
   -1.1810   -2.1346    0.0878 O   0  0  0  0  0  0  0  0  0  0  0  0
    0.9253   -1.1482    2.8846 N   0  0  0  0  0  0  0  0  0  0  0  0
   -6.1549    0.4950    5.3140 C   0  0  0  0  0  0  0  0  0  0  0  0
   -2.0771    1.5052    8.8674 C   0  0  0  0  0  0  0  0  0  0  0  0
  1  2  1  0
  2  3  2  0
  3  4  1  0
  4  5  1  0
  5  6  1  0
  6  7  1  0
  4  8  1  0
  4  9  1  0
  3 10  1  0
 10 11  2  3
 11 12  1  0
 12 13  2  3
 13 14  1  0
 14 15  2  3
 15 16  1  0
 16 17  2  3
 17 18  1  0
 18 19  1  0
 19 20  1  0
 20 21  1  0
 21 22  1  0
 22 23  1  0
 23 24  1  0
 24 25  1  0
 25 26  2  0
 25 27  1  0
 24 28  1  0
 16 29  1  0
 12 30  1  0
  7  2  1  0
M  END
$$$$
