
     RDKit          3D

 30 30  0  0  0  0  0  0  0  0999 V2000
  -10.5797    1.6177    8.7004 C   0  0  0  0  0  0  0  0  0  0  0  0
  -11.6370    1.2339    7.7390 C   0  0  0  0  0  0  0  0  0  0  0  0
  -11.5152    1.2435    6.4452 C   0  0  0  0  0  0  0  0  0  0  0  0
  -12.6695    0.8273    5.5629 C   0  0  0  0  0  0  0  0  0  0  0  0
  -13.6106   -0.1475    6.1430 C   0  0  0  0  0  0  0  0  0  0  0  0
  -13.4811   -0.4140    7.6022 C   0  0  0  0  0  0  0  0  0  0  0  0
  -12.9556    0.8034    8.3323 C   0  0  0  0  0  0  0  0  0  0  0  0
  -12.1399    0.3593    4.2047 C   0  0  0  0  0  0  0  0  0  0  0  0
  -13.4350    2.1194    5.2687 C   0  0  0  0  0  0  0  0  0  0  0  0
  -10.3137    1.6566    5.7462 C   0  0  0  0  0  0  0  0  0  0  0  0
   -9.8839    2.7561    5.2747 C   0  0  0  0  0  0  0  0  0  0  0  0
   -8.5451    2.9220    4.7174 C   0  0  0  0  0  0  0  0  0  0  0  0
   -7.6595    3.6904    5.4396 C   0  0  0  0  0  0  0  0  0  0  0  0
   -6.4520    3.1193    5.9228 C   0  0  0  0  0  0  0  0  0  0  0  0
   -6.1512    2.4563    6.9851 C   0  0  0  0  0  0  0  0  0  0  0  0
   -4.9817    1.6666    7.2736 C   0  0  0  0  0  0  0  0  0  0  0  0
   -4.3922    1.0285    6.2310 C   0  0  0  0  0  0  0  0  0  0  0  0
   -2.9942    0.6674    6.1769 C   0  0  0  0  0  0  0  0  0  0  0  0
   -2.0700    1.2688    7.0254 N   0  0  0  0  0  0  0  0  0  0  0  0
   -0.7041    1.0080    7.0533 C   0  0  0  0  0  0  0  0  0  0  0  0
   -0.3548   -0.4449    7.0704 C   0  0  0  0  0  0  0  0  0  0  0  0
    0.5042   -0.7992    8.2865 C   0  0  0  0  0  0  0  0  0  0  0  0
    0.4110   -2.2744    8.4668 C   0  0  0  0  0  0  0  0  0  0  0  0
    1.6450   -3.0399    8.0801 C   0  0  0  0  0  0  0  0  0  0  0  0
    2.5300   -3.1784    9.2534 C   0  0  0  0  0  0  0  0  0  0  0  0
    2.9551   -4.3104    9.5837 O   0  0  0  0  0  0  0  0  0  0  0  0
    2.8996   -2.0877    9.9914 O   0  0  0  0  0  0  0  0  0  0  0  0
    1.1794   -4.3630    7.6614 N   0  0  0  0  0  0  0  0  0  0  0  0
   -4.3920    1.5964    8.6084 C   0  0  0  0  0  0  0  0  0  0  0  0
   -8.0514    2.3560    3.4774 C   0  0  0  0  0  0  0  0  0  0  0  0
  1  2  1  0
  2  3  2  0
  3  4  1  0
  4  5  1  0
  5  6  1  0
  6  7  1  0
  4  8  1  0
  4  9  1  0
  3 10  1  0
 10 11  2  3
 11 12  1  0
 12 13  2  3
 13 14  1  0
 14 15  2  3
 15 16  1  0
 16 17  2  3
 17 18  1  0
 18 19  1  0
 19 20  1  0
 20 21  1  0
 21 22  1  0
 22 23  1  0
 23 24  1  0
 24 25  1  0
 25 26  2  0
 25 27  1  0
 24 28  1  0
 16 29  1  0
 12 30  1  0
  7  2  1  0
M  END
$$$$
