
     RDKit          3D

 30 30  0  0  0  0  0  0  0  0999 V2000
   -8.0080    3.6295   11.7005 C   0  0  0  0  0  0  0  0  0  0  0  0
   -8.9301    2.6682   11.0563 C   0  0  0  0  0  0  0  0  0  0  0  0
   -8.5708    1.6757   10.2981 C   0  0  0  0  0  0  0  0  0  0  0  0
   -9.6079    0.7566    9.6948 C   0  0  0  0  0  0  0  0  0  0  0  0
  -10.8598    0.6023   10.4572 C   0  0  0  0  0  0  0  0  0  0  0  0
  -11.0779    1.5526   11.5826 C   0  0  0  0  0  0  0  0  0  0  0  0
  -10.4018    2.8795   11.3119 C   0  0  0  0  0  0  0  0  0  0  0  0
   -8.9733   -0.5992    9.3734 C   0  0  0  0  0  0  0  0  0  0  0  0
   -9.9452    1.3715    8.3345 C   0  0  0  0  0  0  0  0  0  0  0  0
   -7.1948    1.3744    9.9534 C   0  0  0  0  0  0  0  0  0  0  0  0
   -6.3282    1.8971    9.1842 C   0  0  0  0  0  0  0  0  0  0  0  0
   -4.9849    1.3557    9.0028 C   0  0  0  0  0  0  0  0  0  0  0  0
   -4.1320    2.0636    8.1857 C   0  0  0  0  0  0  0  0  0  0  0  0
   -4.5047    2.3488    6.8450 C   0  0  0  0  0  0  0  0  0  0  0  0
   -4.1624    1.8508    5.7077 C   0  0  0  0  0  0  0  0  0  0  0  0
   -4.5683    2.2322    4.3795 C   0  0  0  0  0  0  0  0  0  0  0  0
   -3.5955    2.6487    3.5298 C   0  0  0  0  0  0  0  0  0  0  0  0
   -3.6878    2.5924    2.0889 C   0  0  0  0  0  0  0  0  0  0  0  0
   -3.2926    1.4537    1.3940 N   0  0  0  0  0  0  0  0  0  0  0  0
   -2.3102    1.4032    0.4107 C   0  0  0  0  0  0  0  0  0  0  0  0
   -1.9865    0.0244   -0.0662 C   0  0  0  0  0  0  0  0  0  0  0  0
   -0.4748   -0.1930   -0.1635 C   0  0  0  0  0  0  0  0  0  0  0  0
   -0.2679   -1.4632   -0.9127 C   0  0  0  0  0  0  0  0  0  0  0  0
    0.9046   -2.2850   -0.4565 C   0  0  0  0  0  0  0  0  0  0  0  0
    1.4465   -3.0504   -1.5965 C   0  0  0  0  0  0  0  0  0  0  0  0
    1.7397   -4.2606   -1.4521 O   0  0  0  0  0  0  0  0  0  0  0  0
    1.6345   -2.4615   -2.8166 O   0  0  0  0  0  0  0  0  0  0  0  0
    1.9080   -1.3260    0.0083 N   0  0  0  0  0  0  0  0  0  0  0  0
   -5.9495    2.1169    3.9176 C   0  0  0  0  0  0  0  0  0  0  0  0
   -4.4557    0.1451    9.5997 C   0  0  0  0  0  0  0  0  0  0  0  0
  1  2  1  0
  2  3  2  0
  3  4  1  0
  4  5  1  0
  5  6  1  0
  6  7  1  0
  4  8  1  0
  4  9  1  0
  3 10  1  0
 10 11  2  3
 11 12  1  0
 12 13  2  3
 13 14  1  0
 14 15  2  3
 15 16  1  0
 16 17  2  3
 17 18  1  0
 18 19  1  0
 19 20  1  0
 20 21  1  0
 21 22  1  0
 22 23  1  0
 23 24  1  0
 24 25  1  0
 25 26  2  0
 25 27  1  0
 24 28  1  0
 16 29  1  0
 12 30  1  0
  7  2  1  0
M  END
$$$$
