
     RDKit          3D

 30 30  0  0  0  0  0  0  0  0999 V2000
   -1.8370    6.9075    8.5915 C   0  0  0  0  0  0  0  0  0  0  0  0
   -1.6932    7.1394   10.0458 C   0  0  0  0  0  0  0  0  0  0  0  0
   -2.3976    6.5606   10.9719 C   0  0  0  0  0  0  0  0  0  0  0  0
   -2.1577    6.8788   12.4298 C   0  0  0  0  0  0  0  0  0  0  0  0
   -0.7894    7.2945   12.7862 C   0  0  0  0  0  0  0  0  0  0  0  0
    0.1286    7.6093   11.6568 C   0  0  0  0  0  0  0  0  0  0  0  0
   -0.6393    8.1350   10.4630 C   0  0  0  0  0  0  0  0  0  0  0  0
   -2.6367    5.7131   13.2993 C   0  0  0  0  0  0  0  0  0  0  0  0
   -3.1105    8.0329   12.7500 C   0  0  0  0  0  0  0  0  0  0  0  0
   -3.4554    5.6042   10.7085 C   0  0  0  0  0  0  0  0  0  0  0  0
   -4.1975    5.3403    9.7107 C   0  0  0  0  0  0  0  0  0  0  0  0
   -5.3071    4.3935    9.7635 C   0  0  0  0  0  0  0  0  0  0  0  0
   -4.9870    3.0670    9.9484 C   0  0  0  0  0  0  0  0  0  0  0  0
   -5.5636    2.0730    9.1134 C   0  0  0  0  0  0  0  0  0  0  0  0
   -5.1162    0.9772    8.6057 C   0  0  0  0  0  0  0  0  0  0  0  0
   -5.6389    0.1884    7.5199 C   0  0  0  0  0  0  0  0  0  0  0  0
   -4.7404   -0.3566    6.6612 C   0  0  0  0  0  0  0  0  0  0  0  0
   -5.0906   -1.1109    5.4796 C   0  0  0  0  0  0  0  0  0  0  0  0
   -4.1194   -1.4704    4.5505 N   0  0  0  0  0  0  0  0  0  0  0  0
   -3.3366   -0.5889    3.8125 C   0  0  0  0  0  0  0  0  0  0  0  0
   -2.3782   -1.2517    2.8769 C   0  0  0  0  0  0  0  0  0  0  0  0
   -1.0174   -1.4793    3.5391 C   0  0  0  0  0  0  0  0  0  0  0  0
   -0.2512   -2.3952    2.6494 C   0  0  0  0  0  0  0  0  0  0  0  0
    1.2294   -2.1424    2.6023 C   0  0  0  0  0  0  0  0  0  0  0  0
    1.8973   -3.2444    1.8823 C   0  0  0  0  0  0  0  0  0  0  0  0
    3.1462   -3.3463    1.9183 O   0  0  0  0  0  0  0  0  0  0  0  0
    1.1752   -4.1645    1.1732 O   0  0  0  0  0  0  0  0  0  0  0  0
    1.3983   -0.8967    1.8525 N   0  0  0  0  0  0  0  0  0  0  0  0
   -7.0652   -0.0891    7.3673 C   0  0  0  0  0  0  0  0  0  0  0  0
   -6.7167    4.7099    9.6427 C   0  0  0  0  0  0  0  0  0  0  0  0
  1  2  1  0
  2  3  2  0
  3  4  1  0
  4  5  1  0
  5  6  1  0
  6  7  1  0
  4  8  1  0
  4  9  1  0
  3 10  1  0
 10 11  2  3
 11 12  1  0
 12 13  2  3
 13 14  1  0
 14 15  2  3
 15 16  1  0
 16 17  2  3
 17 18  1  0
 18 19  1  0
 19 20  1  0
 20 21  1  0
 21 22  1  0
 22 23  1  0
 23 24  1  0
 24 25  1  0
 25 26  2  0
 25 27  1  0
 24 28  1  0
 16 29  1  0
 12 30  1  0
  7  2  1  0
M  END
$$$$
