
     RDKit          3D

 30 30  0  0  0  0  0  0  0  0999 V2000
   -9.9883   -0.5277    8.1865 C   0  0  0  0  0  0  0  0  0  0  0  0
  -10.6956    0.6987    7.7567 C   0  0  0  0  0  0  0  0  0  0  0  0
  -10.1446    1.7140    7.1613 C   0  0  0  0  0  0  0  0  0  0  0  0
  -10.9733    2.9150    6.7678 C   0  0  0  0  0  0  0  0  0  0  0  0
  -12.3949    2.6552    6.4778 C   0  0  0  0  0  0  0  0  0  0  0  0
  -12.9184    1.3126    6.8526 C   0  0  0  0  0  0  0  0  0  0  0  0
  -12.1751    0.7536    8.0469 C   0  0  0  0  0  0  0  0  0  0  0  0
  -10.2908    3.6600    5.6173 C   0  0  0  0  0  0  0  0  0  0  0  0
  -10.8919    3.8671    7.9632 C   0  0  0  0  0  0  0  0  0  0  0  0
   -8.7319    1.8008    6.8452 C   0  0  0  0  0  0  0  0  0  0  0  0
   -7.9384    2.7450    6.5376 C   0  0  0  0  0  0  0  0  0  0  0  0
   -6.5053    2.5554    6.3348 C   0  0  0  0  0  0  0  0  0  0  0  0
   -5.6727    2.9526    7.3572 C   0  0  0  0  0  0  0  0  0  0  0  0
   -5.4292    2.0839    8.4544 C   0  0  0  0  0  0  0  0  0  0  0  0
   -4.6383    1.0828    8.6302 C   0  0  0  0  0  0  0  0  0  0  0  0
   -3.2184    1.0664    8.8715 C   0  0  0  0  0  0  0  0  0  0  0  0
   -2.7416    0.1026    9.6994 C   0  0  0  0  0  0  0  0  0  0  0  0
   -1.4000   -0.4314    9.6471 C   0  0  0  0  0  0  0  0  0  0  0  0
   -0.5706   -0.1681    8.5615 N   0  0  0  0  0  0  0  0  0  0  0  0
    0.7177   -0.6619    8.3860 C   0  0  0  0  0  0  0  0  0  0  0  0
    0.9057   -1.4623    7.1380 C   0  0  0  0  0  0  0  0  0  0  0  0
   -0.4351   -1.7929    6.4785 C   0  0  0  0  0  0  0  0  0  0  0  0
   -0.1299   -2.3290    5.1232 C   0  0  0  0  0  0  0  0  0  0  0  0
   -0.5345   -1.4382    3.9827 C   0  0  0  0  0  0  0  0  0  0  0  0
    0.2454   -1.7888    2.7795 C   0  0  0  0  0  0  0  0  0  0  0  0
   -0.3483   -2.0981    1.7197 O   0  0  0  0  0  0  0  0  0  0  0  0
    1.6131   -1.7809    2.7976 O   0  0  0  0  0  0  0  0  0  0  0  0
   -1.9518   -1.7147    3.7431 N   0  0  0  0  0  0  0  0  0  0  0  0
   -2.2994    1.9898    8.2103 C   0  0  0  0  0  0  0  0  0  0  0  0
   -5.8684    1.9874    5.1629 C   0  0  0  0  0  0  0  0  0  0  0  0
  1  2  1  0
  2  3  2  0
  3  4  1  0
  4  5  1  0
  5  6  1  0
  6  7  1  0
  4  8  1  0
  4  9  1  0
  3 10  1  0
 10 11  2  3
 11 12  1  0
 12 13  2  3
 13 14  1  0
 14 15  2  3
 15 16  1  0
 16 17  2  3
 17 18  1  0
 18 19  1  0
 19 20  1  0
 20 21  1  0
 21 22  1  0
 22 23  1  0
 23 24  1  0
 24 25  1  0
 25 26  2  0
 25 27  1  0
 24 28  1  0
 16 29  1  0
 12 30  1  0
  7  2  1  0
M  END
$$$$
