
     RDKit          3D

 30 30  0  0  0  0  0  0  0  0999 V2000
   -2.4562    0.2298    9.7486 C   0  0  0  0  0  0  0  0  0  0  0  0
   -3.0813   -0.4852   10.8833 C   0  0  0  0  0  0  0  0  0  0  0  0
   -4.3572   -0.5429   11.1235 C   0  0  0  0  0  0  0  0  0  0  0  0
   -4.8791   -1.3080   12.3178 C   0  0  0  0  0  0  0  0  0  0  0  0
   -4.0573   -2.4453   12.7691 C   0  0  0  0  0  0  0  0  0  0  0  0
   -2.6932   -2.5578   12.1827 C   0  0  0  0  0  0  0  0  0  0  0  0
   -2.1410   -1.1943   11.8261 C   0  0  0  0  0  0  0  0  0  0  0  0
   -6.3312   -1.7256   12.0703 C   0  0  0  0  0  0  0  0  0  0  0  0
   -4.9468   -0.2828   13.4520 C   0  0  0  0  0  0  0  0  0  0  0  0
   -5.3661    0.1113   10.3129 C   0  0  0  0  0  0  0  0  0  0  0  0
   -5.3626    1.0707    9.4788 C   0  0  0  0  0  0  0  0  0  0  0  0
   -6.5748    1.6098    8.8703 C   0  0  0  0  0  0  0  0  0  0  0  0
   -6.4229    2.3188    7.6996 C   0  0  0  0  0  0  0  0  0  0  0  0
   -7.2858    2.0687    6.5994 C   0  0  0  0  0  0  0  0  0  0  0  0
   -7.0855    1.9144    5.3366 C   0  0  0  0  0  0  0  0  0  0  0  0
   -6.6391    2.8691    4.3549 C   0  0  0  0  0  0  0  0  0  0  0  0
   -6.0337    2.3785    3.2438 C   0  0  0  0  0  0  0  0  0  0  0  0
   -4.6055    2.3724    3.0247 C   0  0  0  0  0  0  0  0  0  0  0  0
   -4.0708    1.9074    1.8273 N   0  0  0  0  0  0  0  0  0  0  0  0
   -3.1433    0.8791    1.6979 C   0  0  0  0  0  0  0  0  0  0  0  0
   -2.2119    0.7402    2.8583 C   0  0  0  0  0  0  0  0  0  0  0  0
   -2.1274   -0.7110    3.3368 C   0  0  0  0  0  0  0  0  0  0  0  0
   -1.1563   -1.4043    2.4459 C   0  0  0  0  0  0  0  0  0  0  0  0
    0.2555   -1.4486    2.9587 C   0  0  0  0  0  0  0  0  0  0  0  0
    0.6399   -2.8475    3.2312 C   0  0  0  0  0  0  0  0  0  0  0  0
    0.4664   -3.7244    2.3525 O   0  0  0  0  0  0  0  0  0  0  0  0
    1.1876   -3.2080    4.4316 O   0  0  0  0  0  0  0  0  0  0  0  0
    1.0891   -0.9148    1.8803 N   0  0  0  0  0  0  0  0  0  0  0  0
   -6.8792    4.3039    4.4899 C   0  0  0  0  0  0  0  0  0  0  0  0
   -7.9271    1.4719    9.3744 C   0  0  0  0  0  0  0  0  0  0  0  0
  1  2  1  0
  2  3  2  0
  3  4  1  0
  4  5  1  0
  5  6  1  0
  6  7  1  0
  4  8  1  0
  4  9  1  0
  3 10  1  0
 10 11  2  3
 11 12  1  0
 12 13  2  3
 13 14  1  0
 14 15  2  3
 15 16  1  0
 16 17  2  3
 17 18  1  0
 18 19  1  0
 19 20  1  0
 20 21  1  0
 21 22  1  0
 22 23  1  0
 23 24  1  0
 24 25  1  0
 25 26  2  0
 25 27  1  0
 24 28  1  0
 16 29  1  0
 12 30  1  0
  7  2  1  0
M  END
$$$$
