
     RDKit          3D

 30 30  0  0  0  0  0  0  0  0999 V2000
  -11.4621    3.0543    5.1247 C   0  0  0  0  0  0  0  0  0  0  0  0
  -12.4530    2.2359    5.8579 C   0  0  0  0  0  0  0  0  0  0  0  0
  -12.2547    1.6713    7.0115 C   0  0  0  0  0  0  0  0  0  0  0  0
  -13.3473    0.8571    7.6651 C   0  0  0  0  0  0  0  0  0  0  0  0
  -14.7305    1.2439    7.3342 C   0  0  0  0  0  0  0  0  0  0  0  0
  -14.9048    2.2025    6.2081 C   0  0  0  0  0  0  0  0  0  0  0  0
  -13.7938    2.0532    5.1909 C   0  0  0  0  0  0  0  0  0  0  0  0
  -13.1224    0.8103    9.1789 C   0  0  0  0  0  0  0  0  0  0  0  0
  -13.1202   -0.5778    7.1837 C   0  0  0  0  0  0  0  0  0  0  0  0
  -11.0080    1.7471    7.7485 C   0  0  0  0  0  0  0  0  0  0  0  0
   -9.7887    1.5147    7.4741 C   0  0  0  0  0  0  0  0  0  0  0  0
   -8.7095    1.6337    8.4496 C   0  0  0  0  0  0  0  0  0  0  0  0
   -7.4937    1.0867    8.1047 C   0  0  0  0  0  0  0  0  0  0  0  0
   -6.3854    1.9320    7.8307 C   0  0  0  0  0  0  0  0  0  0  0  0
   -5.1940    1.7131    7.3935 C   0  0  0  0  0  0  0  0  0  0  0  0
   -4.0793    2.6175    7.2753 C   0  0  0  0  0  0  0  0  0  0  0  0
   -2.8486    2.1256    7.5669 C   0  0  0  0  0  0  0  0  0  0  0  0
   -2.1209    1.1945    6.7353 C   0  0  0  0  0  0  0  0  0  0  0  0
   -1.1545    0.3562    7.2823 N   0  0  0  0  0  0  0  0  0  0  0  0
   -0.0291   -0.1245    6.6213 C   0  0  0  0  0  0  0  0  0  0  0  0
   -0.3119   -1.2092    5.6330 C   0  0  0  0  0  0  0  0  0  0  0  0
   -0.8906   -0.6447    4.3336 C   0  0  0  0  0  0  0  0  0  0  0  0
    0.2182   -0.6228    3.3399 C   0  0  0  0  0  0  0  0  0  0  0  0
    0.1732   -1.7206    2.3147 C   0  0  0  0  0  0  0  0  0  0  0  0
    1.4989   -1.8613    1.6811 C   0  0  0  0  0  0  0  0  0  0  0  0
    2.1174   -2.9485    1.7638 O   0  0  0  0  0  0  0  0  0  0  0  0
    2.0691   -0.8220    0.9987 O   0  0  0  0  0  0  0  0  0  0  0  0
   -0.1472   -2.9434    3.0527 N   0  0  0  0  0  0  0  0  0  0  0  0
   -4.2292    3.9891    6.7952 C   0  0  0  0  0  0  0  0  0  0  0  0
   -8.7880    2.2736    9.7481 C   0  0  0  0  0  0  0  0  0  0  0  0
  1  2  1  0
  2  3  2  0
  3  4  1  0
  4  5  1  0
  5  6  1  0
  6  7  1  0
  4  8  1  0
  4  9  1  0
  3 10  1  0
 10 11  2  3
 11 12  1  0
 12 13  2  3
 13 14  1  0
 14 15  2  3
 15 16  1  0
 16 17  2  3
 17 18  1  0
 18 19  1  0
 19 20  1  0
 20 21  1  0
 21 22  1  0
 22 23  1  0
 23 24  1  0
 24 25  1  0
 25 26  2  0
 25 27  1  0
 24 28  1  0
 16 29  1  0
 12 30  1  0
  7  2  1  0
M  END
$$$$
