
     RDKit          3D

 30 30  0  0  0  0  0  0  0  0999 V2000
  -11.1084    1.7217    5.3693 C   0  0  0  0  0  0  0  0  0  0  0  0
  -11.2403    1.6501    6.8414 C   0  0  0  0  0  0  0  0  0  0  0  0
  -10.4223    2.1886    7.6957 C   0  0  0  0  0  0  0  0  0  0  0  0
  -10.6627    2.0483    9.1812 C   0  0  0  0  0  0  0  0  0  0  0  0
  -12.0677    1.8950    9.5993 C   0  0  0  0  0  0  0  0  0  0  0  0
  -13.0605    1.6320    8.5211 C   0  0  0  0  0  0  0  0  0  0  0  0
  -12.4260    0.8815    7.3698 C   0  0  0  0  0  0  0  0  0  0  0  0
   -9.9749    3.1949    9.9272 C   0  0  0  0  0  0  0  0  0  0  0  0
   -9.8975    0.7886    9.5936 C   0  0  0  0  0  0  0  0  0  0  0  0
   -9.2340    2.9320    7.3240 C   0  0  0  0  0  0  0  0  0  0  0  0
   -7.9884    2.6792    7.3027 C   0  0  0  0  0  0  0  0  0  0  0  0
   -6.9919    3.5976    6.7603 C   0  0  0  0  0  0  0  0  0  0  0  0
   -5.6695    3.2475    6.9183 C   0  0  0  0  0  0  0  0  0  0  0  0
   -5.0885    2.2636    6.0745 C   0  0  0  0  0  0  0  0  0  0  0  0
   -3.8724    1.9238    5.8205 C   0  0  0  0  0  0  0  0  0  0  0  0
   -2.9354    1.1917    6.6332 C   0  0  0  0  0  0  0  0  0  0  0  0
   -2.5111   -0.0079    6.1616 C   0  0  0  0  0  0  0  0  0  0  0  0
   -1.6333   -0.1772    5.0264 C   0  0  0  0  0  0  0  0  0  0  0  0
   -0.3243   -0.6166    5.1976 N   0  0  0  0  0  0  0  0  0  0  0  0
    0.0869   -1.9445    5.2409 C   0  0  0  0  0  0  0  0  0  0  0  0
    0.7173   -2.4355    3.9781 C   0  0  0  0  0  0  0  0  0  0  0  0
   -0.0544   -1.9583    2.7457 C   0  0  0  0  0  0  0  0  0  0  0  0
    0.7224   -2.3958    1.5529 C   0  0  0  0  0  0  0  0  0  0  0  0
   -0.0539   -2.4262    0.2665 C   0  0  0  0  0  0  0  0  0  0  0  0
    0.8304   -2.8531   -0.8356 C   0  0  0  0  0  0  0  0  0  0  0  0
    2.0361   -2.5103   -0.8363 O   0  0  0  0  0  0  0  0  0  0  0  0
    0.3571   -3.6226   -1.8627 O   0  0  0  0  0  0  0  0  0  0  0  0
   -1.1085   -3.4227    0.4598 N   0  0  0  0  0  0  0  0  0  0  0  0
   -2.3935    1.7261    7.8803 C   0  0  0  0  0  0  0  0  0  0  0  0
   -7.2549    4.8439    6.0680 C   0  0  0  0  0  0  0  0  0  0  0  0
  1  2  1  0
  2  3  2  0
  3  4  1  0
  4  5  1  0
  5  6  1  0
  6  7  1  0
  4  8  1  0
  4  9  1  0
  3 10  1  0
 10 11  2  3
 11 12  1  0
 12 13  2  3
 13 14  1  0
 14 15  2  3
 15 16  1  0
 16 17  2  3
 17 18  1  0
 18 19  1  0
 19 20  1  0
 20 21  1  0
 21 22  1  0
 22 23  1  0
 23 24  1  0
 24 25  1  0
 25 26  2  0
 25 27  1  0
 24 28  1  0
 16 29  1  0
 12 30  1  0
  7  2  1  0
M  END
$$$$
