
     RDKit          3D

 30 30  0  0  0  0  0  0  0  0999 V2000
   -8.8757    2.2162    9.7617 C   0  0  0  0  0  0  0  0  0  0  0  0
   -7.8650    1.4245   10.4973 C   0  0  0  0  0  0  0  0  0  0  0  0
   -6.6271    1.2648   10.1353 C   0  0  0  0  0  0  0  0  0  0  0  0
   -5.6846    0.4311   10.9724 C   0  0  0  0  0  0  0  0  0  0  0  0
   -5.9761    0.3753   12.4161 C   0  0  0  0  0  0  0  0  0  0  0  0
   -7.2932    0.9154   12.8529 C   0  0  0  0  0  0  0  0  0  0  0  0
   -8.3337    0.7550   11.7654 C   0  0  0  0  0  0  0  0  0  0  0  0
   -4.2391    0.8598   10.7058 C   0  0  0  0  0  0  0  0  0  0  0  0
   -5.7913   -0.9860   10.4044 C   0  0  0  0  0  0  0  0  0  0  0  0
   -6.0544    1.8320    8.9298 C   0  0  0  0  0  0  0  0  0  0  0  0
   -6.3132    1.7468    7.6882 C   0  0  0  0  0  0  0  0  0  0  0  0
   -5.5093    2.3915    6.6544 C   0  0  0  0  0  0  0  0  0  0  0  0
   -5.7082    1.9726    5.3578 C   0  0  0  0  0  0  0  0  0  0  0  0
   -5.8572    2.9274    4.3167 C   0  0  0  0  0  0  0  0  0  0  0  0
   -6.1557    2.8333    3.0675 C   0  0  0  0  0  0  0  0  0  0  0  0
   -5.4445    2.1766    2.0010 C   0  0  0  0  0  0  0  0  0  0  0  0
   -4.2973    1.5293    2.3277 C   0  0  0  0  0  0  0  0  0  0  0  0
   -3.2663    1.1637    1.3837 C   0  0  0  0  0  0  0  0  0  0  0  0
   -3.5326    0.2748    0.3470 N   0  0  0  0  0  0  0  0  0  0  0  0
   -2.5913   -0.2575   -0.5275 C   0  0  0  0  0  0  0  0  0  0  0  0
   -1.8132   -1.4054    0.0294 C   0  0  0  0  0  0  0  0  0  0  0  0
   -0.5198   -0.9326    0.6972 C   0  0  0  0  0  0  0  0  0  0  0  0
   -0.3054   -1.8010    1.8878 C   0  0  0  0  0  0  0  0  0  0  0  0
    1.0069   -1.5998    2.5916 C   0  0  0  0  0  0  0  0  0  0  0  0
    1.0270   -2.3905    3.8379 C   0  0  0  0  0  0  0  0  0  0  0  0
    0.8195   -1.8263    4.9379 O   0  0  0  0  0  0  0  0  0  0  0  0
    1.2671   -3.7369    3.8159 O   0  0  0  0  0  0  0  0  0  0  0  0
    2.0323   -2.1046    1.6771 N   0  0  0  0  0  0  0  0  0  0  0  0
   -5.9506    2.1319    0.6312 C   0  0  0  0  0  0  0  0  0  0  0  0
   -4.5211    3.4330    6.8554 C   0  0  0  0  0  0  0  0  0  0  0  0
  1  2  1  0
  2  3  2  0
  3  4  1  0
  4  5  1  0
  5  6  1  0
  6  7  1  0
  4  8  1  0
  4  9  1  0
  3 10  1  0
 10 11  2  3
 11 12  1  0
 12 13  2  3
 13 14  1  0
 14 15  2  3
 15 16  1  0
 16 17  2  3
 17 18  1  0
 18 19  1  0
 19 20  1  0
 20 21  1  0
 21 22  1  0
 22 23  1  0
 23 24  1  0
 24 25  1  0
 25 26  2  0
 25 27  1  0
 24 28  1  0
 16 29  1  0
 12 30  1  0
  7  2  1  0
M  END
$$$$
