
     RDKit          3D

 30 30  0  0  0  0  0  0  0  0999 V2000
  -11.4254    0.6189    9.4509 C   0  0  0  0  0  0  0  0  0  0  0  0
  -12.2648    1.0667    8.3176 C   0  0  0  0  0  0  0  0  0  0  0  0
  -11.8213    1.6059    7.2215 C   0  0  0  0  0  0  0  0  0  0  0  0
  -12.7793    2.0234    6.1297 C   0  0  0  0  0  0  0  0  0  0  0  0
  -14.0365    1.2590    6.0429 C   0  0  0  0  0  0  0  0  0  0  0  0
  -14.3456    0.3501    7.1811 C   0  0  0  0  0  0  0  0  0  0  0  0
  -13.7532    0.8747    8.4715 C   0  0  0  0  0  0  0  0  0  0  0  0
  -12.0477    2.0588    4.7852 C   0  0  0  0  0  0  0  0  0  0  0  0
  -13.1232    3.4830    6.4351 C   0  0  0  0  0  0  0  0  0  0  0  0
  -10.4201    1.8682    6.9553 C   0  0  0  0  0  0  0  0  0  0  0  0
   -9.5942    1.5044    6.0600 C   0  0  0  0  0  0  0  0  0  0  0  0
   -8.1685    1.8134    6.1098 C   0  0  0  0  0  0  0  0  0  0  0  0
   -7.6987    2.7383    5.2042 C   0  0  0  0  0  0  0  0  0  0  0  0
   -6.9748    2.3093    4.0598 C   0  0  0  0  0  0  0  0  0  0  0  0
   -5.7874    2.5510    3.6235 C   0  0  0  0  0  0  0  0  0  0  0  0
   -4.6394    1.6836    3.5587 C   0  0  0  0  0  0  0  0  0  0  0  0
   -3.9733    1.4495    4.7177 C   0  0  0  0  0  0  0  0  0  0  0  0
   -2.5463    1.6002    4.8867 C   0  0  0  0  0  0  0  0  0  0  0  0
   -1.8484    0.8056    5.7909 N   0  0  0  0  0  0  0  0  0  0  0  0
   -1.9903    0.8342    7.1741 C   0  0  0  0  0  0  0  0  0  0  0  0
   -0.7182    0.6185    7.9282 C   0  0  0  0  0  0  0  0  0  0  0  0
   -0.6123   -0.8176    8.4467 C   0  0  0  0  0  0  0  0  0  0  0  0
    0.6492   -0.9014    9.2335 C   0  0  0  0  0  0  0  0  0  0  0  0
    1.5880   -1.9966    8.8125 C   0  0  0  0  0  0  0  0  0  0  0  0
    1.8772   -2.8716    9.9656 C   0  0  0  0  0  0  0  0  0  0  0  0
    1.3032   -3.9814   10.0658 O   0  0  0  0  0  0  0  0  0  0  0  0
    2.7673   -2.4934   10.9329 O   0  0  0  0  0  0  0  0  0  0  0  0
    0.8760   -2.7607    7.7868 N   0  0  0  0  0  0  0  0  0  0  0  0
   -4.2303    1.0142    2.3262 C   0  0  0  0  0  0  0  0  0  0  0  0
   -7.1945    1.2446    7.0206 C   0  0  0  0  0  0  0  0  0  0  0  0
  1  2  1  0
  2  3  2  0
  3  4  1  0
  4  5  1  0
  5  6  1  0
  6  7  1  0
  4  8  1  0
  4  9  1  0
  3 10  1  0
 10 11  2  3
 11 12  1  0
 12 13  2  3
 13 14  1  0
 14 15  2  3
 15 16  1  0
 16 17  2  3
 17 18  1  0
 18 19  1  0
 19 20  1  0
 20 21  1  0
 21 22  1  0
 22 23  1  0
 23 24  1  0
 24 25  1  0
 25 26  2  0
 25 27  1  0
 24 28  1  0
 16 29  1  0
 12 30  1  0
  7  2  1  0
M  END
$$$$
