
     RDKit          3D

 30 30  0  0  0  0  0  0  0  0999 V2000
   -6.4959    3.4875    5.5205 C   0  0  0  0  0  0  0  0  0  0  0  0
   -6.0518    4.8162    5.9964 C   0  0  0  0  0  0  0  0  0  0  0  0
   -5.3487    5.0339    7.0674 C   0  0  0  0  0  0  0  0  0  0  0  0
   -4.9526    6.4407    7.4523 C   0  0  0  0  0  0  0  0  0  0  0  0
   -4.8023    7.3988    6.3424 C   0  0  0  0  0  0  0  0  0  0  0  0
   -5.3044    6.9619    5.0104 C   0  0  0  0  0  0  0  0  0  0  0  0
   -6.4635    5.9993    5.1558 C   0  0  0  0  0  0  0  0  0  0  0  0
   -3.7033    6.4028    8.3366 C   0  0  0  0  0  0  0  0  0  0  0  0
   -6.0742    6.9364    8.3679 C   0  0  0  0  0  0  0  0  0  0  0  0
   -4.9079    3.9919    7.9746 C   0  0  0  0  0  0  0  0  0  0  0  0
   -5.3192    2.8254    8.2679 C   0  0  0  0  0  0  0  0  0  0  0  0
   -4.7233    2.0041    9.3171 C   0  0  0  0  0  0  0  0  0  0  0  0
   -3.8612    1.0082    8.9158 C   0  0  0  0  0  0  0  0  0  0  0  0
   -4.1591    0.2305    7.7650 C   0  0  0  0  0  0  0  0  0  0  0  0
   -3.5646   -0.7542    7.1857 C   0  0  0  0  0  0  0  0  0  0  0  0
   -3.8131   -1.3459    5.8963 C   0  0  0  0  0  0  0  0  0  0  0  0
   -2.9570   -2.3145    5.4836 C   0  0  0  0  0  0  0  0  0  0  0  0
   -1.5618   -2.0976    5.1764 C   0  0  0  0  0  0  0  0  0  0  0  0
   -0.7053   -3.1721    4.9584 N   0  0  0  0  0  0  0  0  0  0  0  0
    0.5260   -3.3666    5.5754 C   0  0  0  0  0  0  0  0  0  0  0  0
    0.6198   -2.7999    6.9550 C   0  0  0  0  0  0  0  0  0  0  0  0
   -0.2151   -3.6093    7.9499 C   0  0  0  0  0  0  0  0  0  0  0  0
    0.3690   -3.3714    9.2989 C   0  0  0  0  0  0  0  0  0  0  0  0
    1.7115   -4.0059    9.5298 C   0  0  0  0  0  0  0  0  0  0  0  0
    2.4621   -3.2256   10.5331 C   0  0  0  0  0  0  0  0  0  0  0  0
    3.6567   -2.9147   10.3151 O   0  0  0  0  0  0  0  0  0  0  0  0
    1.8750   -2.8305   11.7037 O   0  0  0  0  0  0  0  0  0  0  0  0
    1.4359   -5.3429   10.0581 N   0  0  0  0  0  0  0  0  0  0  0  0
   -4.9704   -0.9890    5.0792 C   0  0  0  0  0  0  0  0  0  0  0  0
   -4.9465    2.1330   10.7438 C   0  0  0  0  0  0  0  0  0  0  0  0
  1  2  1  0
  2  3  2  0
  3  4  1  0
  4  5  1  0
  5  6  1  0
  6  7  1  0
  4  8  1  0
  4  9  1  0
  3 10  1  0
 10 11  2  3
 11 12  1  0
 12 13  2  3
 13 14  1  0
 14 15  2  3
 15 16  1  0
 16 17  2  3
 17 18  1  0
 18 19  1  0
 19 20  1  0
 20 21  1  0
 21 22  1  0
 22 23  1  0
 23 24  1  0
 24 25  1  0
 25 26  2  0
 25 27  1  0
 24 28  1  0
 16 29  1  0
 12 30  1  0
  7  2  1  0
M  END
$$$$
