
     RDKit          3D

 30 30  0  0  0  0  0  0  0  0999 V2000
   -4.8932   -1.3972    9.8211 C   0  0  0  0  0  0  0  0  0  0  0  0
   -4.8892   -0.6943   11.1232 C   0  0  0  0  0  0  0  0  0  0  0  0
   -5.5587    0.3858   11.3957 C   0  0  0  0  0  0  0  0  0  0  0  0
   -5.4755    1.0143   12.7676 C   0  0  0  0  0  0  0  0  0  0  0  0
   -5.1956    0.0959   13.8858 C   0  0  0  0  0  0  0  0  0  0  0  0
   -4.7685   -1.2844   13.5257 C   0  0  0  0  0  0  0  0  0  0  0  0
   -4.0281   -1.2968   12.2055 C   0  0  0  0  0  0  0  0  0  0  0  0
   -6.7287    1.8542   13.0287 C   0  0  0  0  0  0  0  0  0  0  0  0
   -4.3299    2.0250   12.6763 C   0  0  0  0  0  0  0  0  0  0  0  0
   -6.4038    1.0790   10.4426 C   0  0  0  0  0  0  0  0  0  0  0  0
   -7.0848    0.7293    9.4278 C   0  0  0  0  0  0  0  0  0  0  0  0
   -7.7553    1.6787    8.5449 C   0  0  0  0  0  0  0  0  0  0  0  0
   -7.6702    1.4393    7.1915 C   0  0  0  0  0  0  0  0  0  0  0  0
   -6.6349    2.0399    6.4265 C   0  0  0  0  0  0  0  0  0  0  0  0
   -6.2837    1.9504    5.1907 C   0  0  0  0  0  0  0  0  0  0  0  0
   -5.1068    2.4562    4.5323 C   0  0  0  0  0  0  0  0  0  0  0  0
   -4.1009    1.5758    4.2983 C   0  0  0  0  0  0  0  0  0  0  0  0
   -2.6952    1.8882    4.4178 C   0  0  0  0  0  0  0  0  0  0  0  0
   -1.7903    0.9350    4.8744 N   0  0  0  0  0  0  0  0  0  0  0  0
   -1.4985   -0.2723    4.2487 C   0  0  0  0  0  0  0  0  0  0  0  0
   -1.2961   -0.1674    2.7718 C   0  0  0  0  0  0  0  0  0  0  0  0
   -0.2301   -1.1504    2.2824 C   0  0  0  0  0  0  0  0  0  0  0  0
   -0.3257   -1.1877    0.7968 C   0  0  0  0  0  0  0  0  0  0  0  0
    0.5264   -2.2319    0.1322 C   0  0  0  0  0  0  0  0  0  0  0  0
    0.3498   -2.1575   -1.3314 C   0  0  0  0  0  0  0  0  0  0  0  0
   -0.7644   -2.4253   -1.8395 O   0  0  0  0  0  0  0  0  0  0  0  0
    1.3848   -1.7974   -2.1499 O   0  0  0  0  0  0  0  0  0  0  0  0
    1.9094   -1.8960    0.4745 N   0  0  0  0  0  0  0  0  0  0  0  0
   -5.0028    3.8352    4.0611 C   0  0  0  0  0  0  0  0  0  0  0  0
   -8.5060    2.8508    8.9505 C   0  0  0  0  0  0  0  0  0  0  0  0
  1  2  1  0
  2  3  2  0
  3  4  1  0
  4  5  1  0
  5  6  1  0
  6  7  1  0
  4  8  1  0
  4  9  1  0
  3 10  1  0
 10 11  2  3
 11 12  1  0
 12 13  2  3
 13 14  1  0
 14 15  2  3
 15 16  1  0
 16 17  2  3
 17 18  1  0
 18 19  1  0
 19 20  1  0
 20 21  1  0
 21 22  1  0
 22 23  1  0
 23 24  1  0
 24 25  1  0
 25 26  2  0
 25 27  1  0
 24 28  1  0
 16 29  1  0
 12 30  1  0
  7  2  1  0
M  END
$$$$
