
     RDKit          3D

 30 30  0  0  0  0  0  0  0  0999 V2000
  -13.2557   -0.4845    8.9162 C   0  0  0  0  0  0  0  0  0  0  0  0
  -14.1853    0.3771    8.1528 C   0  0  0  0  0  0  0  0  0  0  0  0
  -13.8879    1.5337    7.6402 C   0  0  0  0  0  0  0  0  0  0  0  0
  -14.9256    2.3242    6.8770 C   0  0  0  0  0  0  0  0  0  0  0  0
  -15.9721    1.5373    6.2003 C   0  0  0  0  0  0  0  0  0  0  0  0
  -16.0526    0.0922    6.5506 C   0  0  0  0  0  0  0  0  0  0  0  0
  -15.5874   -0.1492    7.9706 C   0  0  0  0  0  0  0  0  0  0  0  0
  -14.2332    3.2892    5.9107 C   0  0  0  0  0  0  0  0  0  0  0  0
  -15.5960    3.2190    7.9220 C   0  0  0  0  0  0  0  0  0  0  0  0
  -12.5880    2.1649    7.7611 C   0  0  0  0  0  0  0  0  0  0  0  0
  -11.4542    1.9951    7.2117 C   0  0  0  0  0  0  0  0  0  0  0  0
  -10.2447    2.6947    7.6339 C   0  0  0  0  0  0  0  0  0  0  0  0
   -9.1141    1.9304    7.8179 C   0  0  0  0  0  0  0  0  0  0  0  0
   -7.8504    2.4142    7.3859 C   0  0  0  0  0  0  0  0  0  0  0  0
   -6.6772    1.8868    7.3216 C   0  0  0  0  0  0  0  0  0  0  0  0
   -5.4393    2.4565    6.8553 C   0  0  0  0  0  0  0  0  0  0  0  0
   -4.3719    1.6242    6.7580 C   0  0  0  0  0  0  0  0  0  0  0  0
   -2.9987    2.0268    6.9585 C   0  0  0  0  0  0  0  0  0  0  0  0
   -2.0315    1.7645    5.9933 N   0  0  0  0  0  0  0  0  0  0  0  0
   -1.5182    0.5108    5.6787 C   0  0  0  0  0  0  0  0  0  0  0  0
   -2.2504   -0.1979    4.5856 C   0  0  0  0  0  0  0  0  0  0  0  0
   -1.3999   -1.3144    3.9754 C   0  0  0  0  0  0  0  0  0  0  0  0
   -0.6194   -0.7048    2.8633 C   0  0  0  0  0  0  0  0  0  0  0  0
   -0.5773   -1.5156    1.5988 C   0  0  0  0  0  0  0  0  0  0  0  0
    0.2587   -0.8267    0.5962 C   0  0  0  0  0  0  0  0  0  0  0  0
   -0.2741   -0.3252   -0.4216 O   0  0  0  0  0  0  0  0  0  0  0  0
    1.6129   -0.7221    0.7579 O   0  0  0  0  0  0  0  0  0  0  0  0
    0.0460   -2.7894    1.9616 N   0  0  0  0  0  0  0  0  0  0  0  0
   -5.3277    3.8497    6.4300 C   0  0  0  0  0  0  0  0  0  0  0  0
  -10.1127    4.1177    7.8776 C   0  0  0  0  0  0  0  0  0  0  0  0
  1  2  1  0
  2  3  2  0
  3  4  1  0
  4  5  1  0
  5  6  1  0
  6  7  1  0
  4  8  1  0
  4  9  1  0
  3 10  1  0
 10 11  2  3
 11 12  1  0
 12 13  2  3
 13 14  1  0
 14 15  2  3
 15 16  1  0
 16 17  2  3
 17 18  1  0
 18 19  1  0
 19 20  1  0
 20 21  1  0
 21 22  1  0
 22 23  1  0
 23 24  1  0
 24 25  1  0
 25 26  2  0
 25 27  1  0
 24 28  1  0
 16 29  1  0
 12 30  1  0
  7  2  1  0
M  END
$$$$
