
     RDKit          3D

 30 30  0  0  0  0  0  0  0  0999 V2000
   -9.0615   -0.9851   11.2311 C   0  0  0  0  0  0  0  0  0  0  0  0
   -7.7450   -1.1613   11.8831 C   0  0  0  0  0  0  0  0  0  0  0  0
   -6.6750   -0.4753   11.6124 C   0  0  0  0  0  0  0  0  0  0  0  0
   -5.3832   -0.7463   12.3485 C   0  0  0  0  0  0  0  0  0  0  0  0
   -5.5158   -1.2736   13.7184 C   0  0  0  0  0  0  0  0  0  0  0  0
   -6.8727   -1.7272   14.1311 C   0  0  0  0  0  0  0  0  0  0  0  0
   -7.6615   -2.2325   12.9421 C   0  0  0  0  0  0  0  0  0  0  0  0
   -4.4936    0.4992   12.3081 C   0  0  0  0  0  0  0  0  0  0  0  0
   -4.6497   -1.7879   11.5005 C   0  0  0  0  0  0  0  0  0  0  0  0
   -6.6111    0.5644   10.6034 C   0  0  0  0  0  0  0  0  0  0  0  0
   -6.0707    0.6699    9.4576 C   0  0  0  0  0  0  0  0  0  0  0  0
   -6.1815    1.8633    8.6245 C   0  0  0  0  0  0  0  0  0  0  0  0
   -6.4860    1.6702    7.2955 C   0  0  0  0  0  0  0  0  0  0  0  0
   -5.5596    2.0556    6.2901 C   0  0  0  0  0  0  0  0  0  0  0  0
   -5.5009    1.8559    5.0192 C   0  0  0  0  0  0  0  0  0  0  0  0
   -4.3537    1.6329    4.1773 C   0  0  0  0  0  0  0  0  0  0  0  0
   -3.3994    0.7871    4.6414 C   0  0  0  0  0  0  0  0  0  0  0  0
   -2.5340   -0.0102    3.8028 C   0  0  0  0  0  0  0  0  0  0  0  0
   -2.7463   -0.0871    2.4299 N   0  0  0  0  0  0  0  0  0  0  0  0
   -1.7544   -0.1795    1.4593 C   0  0  0  0  0  0  0  0  0  0  0  0
   -0.8343   -1.3449    1.6279 C   0  0  0  0  0  0  0  0  0  0  0  0
   -0.2378   -1.7846    0.2889 C   0  0  0  0  0  0  0  0  0  0  0  0
    1.1934   -1.3735    0.2972 C   0  0  0  0  0  0  0  0  0  0  0  0
    1.7057   -0.8323   -1.0077 C   0  0  0  0  0  0  0  0  0  0  0  0
    3.1710   -0.9979   -1.0716 C   0  0  0  0  0  0  0  0  0  0  0  0
    3.6634   -1.9488   -1.7232 O   0  0  0  0  0  0  0  0  0  0  0  0
    4.0085   -0.1266   -0.4308 O   0  0  0  0  0  0  0  0  0  0  0  0
    1.0770   -1.6438   -2.0511 N   0  0  0  0  0  0  0  0  0  0  0  0
   -4.2311    2.2221    2.8460 C   0  0  0  0  0  0  0  0  0  0  0  0
   -6.0047    3.2357    9.0568 C   0  0  0  0  0  0  0  0  0  0  0  0
  1  2  1  0
  2  3  2  0
  3  4  1  0
  4  5  1  0
  5  6  1  0
  6  7  1  0
  4  8  1  0
  4  9  1  0
  3 10  1  0
 10 11  2  3
 11 12  1  0
 12 13  2  3
 13 14  1  0
 14 15  2  3
 15 16  1  0
 16 17  2  3
 17 18  1  0
 18 19  1  0
 19 20  1  0
 20 21  1  0
 21 22  1  0
 22 23  1  0
 23 24  1  0
 24 25  1  0
 25 26  2  0
 25 27  1  0
 24 28  1  0
 16 29  1  0
 12 30  1  0
  7  2  1  0
M  END
$$$$
