
     RDKit          3D

 30 30  0  0  0  0  0  0  0  0999 V2000
  -13.0855   -0.9062    7.3025 C   0  0  0  0  0  0  0  0  0  0  0  0
  -13.7425    0.3729    7.6512 C   0  0  0  0  0  0  0  0  0  0  0  0
  -13.2605    1.5553    7.4091 C   0  0  0  0  0  0  0  0  0  0  0  0
  -14.0270    2.7936    7.8129 C   0  0  0  0  0  0  0  0  0  0  0  0
  -15.4942    2.6617    7.8598 C   0  0  0  0  0  0  0  0  0  0  0  0
  -16.0440    1.2810    7.7662 C   0  0  0  0  0  0  0  0  0  0  0  0
  -15.0774    0.2710    8.3466 C   0  0  0  0  0  0  0  0  0  0  0  0
  -13.5954    3.9763    6.9416 C   0  0  0  0  0  0  0  0  0  0  0  0
  -13.5288    3.1321    9.2198 C   0  0  0  0  0  0  0  0  0  0  0  0
  -11.9809    1.7949    6.7701 C   0  0  0  0  0  0  0  0  0  0  0  0
  -10.9051    2.3808    7.1094 C   0  0  0  0  0  0  0  0  0  0  0  0
   -9.7101    2.4136    6.2718 C   0  0  0  0  0  0  0  0  0  0  0  0
   -8.6529    3.1721    6.7226 C   0  0  0  0  0  0  0  0  0  0  0  0
   -7.4711    2.5381    7.1908 C   0  0  0  0  0  0  0  0  0  0  0  0
   -6.5531    1.8434    6.6135 C   0  0  0  0  0  0  0  0  0  0  0  0
   -5.1630    1.6923    6.9588 C   0  0  0  0  0  0  0  0  0  0  0  0
   -4.6208    0.4560    6.8206 C   0  0  0  0  0  0  0  0  0  0  0  0
   -3.8021    0.0412    5.7046 C   0  0  0  0  0  0  0  0  0  0  0  0
   -2.4433   -0.2072    5.8718 N   0  0  0  0  0  0  0  0  0  0  0  0
   -1.4095    0.4807    5.2454 C   0  0  0  0  0  0  0  0  0  0  0  0
   -0.9275   -0.1511    3.9798 C   0  0  0  0  0  0  0  0  0  0  0  0
    0.6008   -0.1461    3.8993 C   0  0  0  0  0  0  0  0  0  0  0  0
    0.9938   -1.3160    3.0660 C   0  0  0  0  0  0  0  0  0  0  0  0
    1.6014   -0.9718    1.7354 C   0  0  0  0  0  0  0  0  0  0  0  0
    2.8440   -1.7449    1.5433 C   0  0  0  0  0  0  0  0  0  0  0  0
    3.3889   -1.7796    0.4150 O   0  0  0  0  0  0  0  0  0  0  0  0
    3.4181   -2.4276    2.5804 O   0  0  0  0  0  0  0  0  0  0  0  0
    0.6162   -1.3742    0.7304 N   0  0  0  0  0  0  0  0  0  0  0  0
   -4.3306    2.8192    7.3734 C   0  0  0  0  0  0  0  0  0  0  0  0
   -9.5227    1.7242    5.0103 C   0  0  0  0  0  0  0  0  0  0  0  0
  1  2  1  0
  2  3  2  0
  3  4  1  0
  4  5  1  0
  5  6  1  0
  6  7  1  0
  4  8  1  0
  4  9  1  0
  3 10  1  0
 10 11  2  3
 11 12  1  0
 12 13  2  3
 13 14  1  0
 14 15  2  3
 15 16  1  0
 16 17  2  3
 17 18  1  0
 18 19  1  0
 19 20  1  0
 20 21  1  0
 21 22  1  0
 22 23  1  0
 23 24  1  0
 24 25  1  0
 25 26  2  0
 25 27  1  0
 24 28  1  0
 16 29  1  0
 12 30  1  0
  7  2  1  0
M  END
$$$$
