
     RDKit          3D

 30 30  0  0  0  0  0  0  0  0999 V2000
   -2.8936    3.5314    2.8194 C   0  0  0  0  0  0  0  0  0  0  0  0
   -3.3429    2.3359    2.0722 C   0  0  0  0  0  0  0  0  0  0  0  0
   -4.2651    1.5081    2.4638 C   0  0  0  0  0  0  0  0  0  0  0  0
   -4.6404    0.3183    1.6108 C   0  0  0  0  0  0  0  0  0  0  0  0
   -4.4512    0.4766    0.1577 C   0  0  0  0  0  0  0  0  0  0  0  0
   -3.6767    1.6673   -0.2892 C   0  0  0  0  0  0  0  0  0  0  0  0
   -2.6581    2.0754    0.7534 C   0  0  0  0  0  0  0  0  0  0  0  0
   -6.0648   -0.1309    1.9476 C   0  0  0  0  0  0  0  0  0  0  0  0
   -3.7387   -0.8205    2.0927 C   0  0  0  0  0  0  0  0  0  0  0  0
   -4.9839    1.6279    3.7176 C   0  0  0  0  0  0  0  0  0  0  0  0
   -6.0674    2.1850    4.0802 C   0  0  0  0  0  0  0  0  0  0  0  0
   -6.4921    2.2843    5.4732 C   0  0  0  0  0  0  0  0  0  0  0  0
   -6.0979    1.2718    6.3192 C   0  0  0  0  0  0  0  0  0  0  0  0
   -6.6293    1.1964    7.6343 C   0  0  0  0  0  0  0  0  0  0  0  0
   -6.4654    1.9071    8.6957 C   0  0  0  0  0  0  0  0  0  0  0  0
   -5.9992    1.5138   10.0005 C   0  0  0  0  0  0  0  0  0  0  0  0
   -5.3429    0.3296   10.0931 C   0  0  0  0  0  0  0  0  0  0  0  0
   -4.9456   -0.2912   11.3359 C   0  0  0  0  0  0  0  0  0  0  0  0
   -3.6802   -0.8518   11.4792 N   0  0  0  0  0  0  0  0  0  0  0  0
   -3.1443   -1.8594   10.6843 C   0  0  0  0  0  0  0  0  0  0  0  0
   -1.7209   -2.1950   10.9918 C   0  0  0  0  0  0  0  0  0  0  0  0
   -0.7547   -1.2831   10.2322 C   0  0  0  0  0  0  0  0  0  0  0  0
    0.5785   -1.9458   10.2612 C   0  0  0  0  0  0  0  0  0  0  0  0
    1.1645   -2.2516    8.9117 C   0  0  0  0  0  0  0  0  0  0  0  0
    1.4069   -0.9927    8.1801 C   0  0  0  0  0  0  0  0  0  0  0  0
    0.6067   -0.6260    7.2876 O   0  0  0  0  0  0  0  0  0  0  0  0
    2.4943   -0.2115    8.4602 O   0  0  0  0  0  0  0  0  0  0  0  0
    2.4414   -2.9180    9.1723 N   0  0  0  0  0  0  0  0  0  0  0  0
   -6.1488    2.3666   11.1772 C   0  0  0  0  0  0  0  0  0  0  0  0
   -7.2878    3.3457    6.0581 C   0  0  0  0  0  0  0  0  0  0  0  0
  1  2  1  0
  2  3  2  0
  3  4  1  0
  4  5  1  0
  5  6  1  0
  6  7  1  0
  4  8  1  0
  4  9  1  0
  3 10  1  0
 10 11  2  3
 11 12  1  0
 12 13  2  3
 13 14  1  0
 14 15  2  3
 15 16  1  0
 16 17  2  3
 17 18  1  0
 18 19  1  0
 19 20  1  0
 20 21  1  0
 21 22  1  0
 22 23  1  0
 23 24  1  0
 24 25  1  0
 25 26  2  0
 25 27  1  0
 24 28  1  0
 16 29  1  0
 12 30  1  0
  7  2  1  0
M  END
$$$$
