
     RDKit          3D

 30 30  0  0  0  0  0  0  0  0999 V2000
   -2.5266   -0.7880   10.2147 C   0  0  0  0  0  0  0  0  0  0  0  0
   -3.5169   -0.8279   11.3134 C   0  0  0  0  0  0  0  0  0  0  0  0
   -4.5851   -0.0917   11.3889 C   0  0  0  0  0  0  0  0  0  0  0  0
   -5.5262   -0.2234   12.5641 C   0  0  0  0  0  0  0  0  0  0  0  0
   -5.5736   -1.5464   13.2119 C   0  0  0  0  0  0  0  0  0  0  0  0
   -4.5174   -2.5201   12.8202 C   0  0  0  0  0  0  0  0  0  0  0  0
   -3.2410   -1.8079   12.4267 C   0  0  0  0  0  0  0  0  0  0  0  0
   -6.9234    0.2586   12.1645 C   0  0  0  0  0  0  0  0  0  0  0  0
   -5.0305    0.7979   13.5905 C   0  0  0  0  0  0  0  0  0  0  0  0
   -4.9560    0.9039   10.4018 C   0  0  0  0  0  0  0  0  0  0  0  0
   -4.4085    1.3782    9.3572 C   0  0  0  0  0  0  0  0  0  0  0  0
   -4.9718    2.4822    8.5862 C   0  0  0  0  0  0  0  0  0  0  0  0
   -4.4079    2.7353    7.3556 C   0  0  0  0  0  0  0  0  0  0  0  0
   -5.1125    2.4017    6.1682 C   0  0  0  0  0  0  0  0  0  0  0  0
   -4.7968    2.4166    4.9197 C   0  0  0  0  0  0  0  0  0  0  0  0
   -5.6270    2.2113    3.7608 C   0  0  0  0  0  0  0  0  0  0  0  0
   -5.3057    1.1766    2.9436 C   0  0  0  0  0  0  0  0  0  0  0  0
   -5.1594    1.2805    1.5099 C   0  0  0  0  0  0  0  0  0  0  0  0
   -4.5485    2.3906    0.9350 N   0  0  0  0  0  0  0  0  0  0  0  0
   -3.3100    2.3984    0.3022 C   0  0  0  0  0  0  0  0  0  0  0  0
   -2.8883    1.0722   -0.2423 C   0  0  0  0  0  0  0  0  0  0  0  0
   -1.3647    0.9676   -0.3415 C   0  0  0  0  0  0  0  0  0  0  0  0
   -1.0008   -0.4240    0.0439 C   0  0  0  0  0  0  0  0  0  0  0  0
   -0.3644   -1.2386   -1.0469 C   0  0  0  0  0  0  0  0  0  0  0  0
    0.9834   -1.6664   -0.6235 C   0  0  0  0  0  0  0  0  0  0  0  0
    1.1121   -2.6315    0.1660 O   0  0  0  0  0  0  0  0  0  0  0  0
    2.1030   -1.0272   -1.0805 O   0  0  0  0  0  0  0  0  0  0  0  0
   -1.2186   -2.4149   -1.2171 N   0  0  0  0  0  0  0  0  0  0  0  0
   -6.8124    3.0218    3.4912 C   0  0  0  0  0  0  0  0  0  0  0  0
   -6.0698    3.3405    8.9856 C   0  0  0  0  0  0  0  0  0  0  0  0
  1  2  1  0
  2  3  2  0
  3  4  1  0
  4  5  1  0
  5  6  1  0
  6  7  1  0
  4  8  1  0
  4  9  1  0
  3 10  1  0
 10 11  2  3
 11 12  1  0
 12 13  2  3
 13 14  1  0
 14 15  2  3
 15 16  1  0
 16 17  2  3
 17 18  1  0
 18 19  1  0
 19 20  1  0
 20 21  1  0
 21 22  1  0
 22 23  1  0
 23 24  1  0
 24 25  1  0
 25 26  2  0
 25 27  1  0
 24 28  1  0
 16 29  1  0
 12 30  1  0
  7  2  1  0
M  END
$$$$
