
     RDKit          3D

 30 30  0  0  0  0  0  0  0  0999 V2000
  -12.4350   -0.3217    5.2080 C   0  0  0  0  0  0  0  0  0  0  0  0
  -13.4924    0.2224    6.0885 C   0  0  0  0  0  0  0  0  0  0  0  0
  -13.3563    1.2398    6.8855 C   0  0  0  0  0  0  0  0  0  0  0  0
  -14.5131    1.7059    7.7391 C   0  0  0  0  0  0  0  0  0  0  0  0
  -15.8610    1.4478    7.2015 C   0  0  0  0  0  0  0  0  0  0  0  0
  -15.9485    0.5371    6.0266 C   0  0  0  0  0  0  0  0  0  0  0  0
  -14.8271   -0.4795    6.0428 C   0  0  0  0  0  0  0  0  0  0  0  0
  -14.3253    3.1809    8.1042 C   0  0  0  0  0  0  0  0  0  0  0  0
  -14.3679    0.9465    9.0598 C   0  0  0  0  0  0  0  0  0  0  0  0
  -12.1240    1.9878    7.0435 C   0  0  0  0  0  0  0  0  0  0  0  0
  -10.9292    1.6908    7.3603 C   0  0  0  0  0  0  0  0  0  0  0  0
   -9.8225    2.6404    7.2980 C   0  0  0  0  0  0  0  0  0  0  0  0
   -8.5501    2.1144    7.2692 C   0  0  0  0  0  0  0  0  0  0  0  0
   -8.0432    1.5440    6.0711 C   0  0  0  0  0  0  0  0  0  0  0  0
   -6.8542    1.2815    5.6515 C   0  0  0  0  0  0  0  0  0  0  0  0
   -5.6453    2.0543    5.7773 C   0  0  0  0  0  0  0  0  0  0  0  0
   -4.4864    1.4579    5.3994 C   0  0  0  0  0  0  0  0  0  0  0  0
   -3.8528    0.3735    6.1138 C   0  0  0  0  0  0  0  0  0  0  0  0
   -2.7627   -0.2976    5.5686 N   0  0  0  0  0  0  0  0  0  0  0  0
   -1.5595    0.2855    5.1855 C   0  0  0  0  0  0  0  0  0  0  0  0
   -0.4750    0.1890    6.2090 C   0  0  0  0  0  0  0  0  0  0  0  0
   -0.5783   -1.1095    7.0124 C   0  0  0  0  0  0  0  0  0  0  0  0
    0.5229   -1.0869    8.0145 C   0  0  0  0  0  0  0  0  0  0  0  0
    1.1144   -2.4300    8.3375 C   0  0  0  0  0  0  0  0  0  0  0  0
    0.7166   -2.8315    9.7011 C   0  0  0  0  0  0  0  0  0  0  0  0
    1.0447   -2.1218   10.6809 O   0  0  0  0  0  0  0  0  0  0  0  0
   -0.0100   -3.9699    9.9181 O   0  0  0  0  0  0  0  0  0  0  0  0
    0.5402   -3.3633    7.3670 N   0  0  0  0  0  0  0  0  0  0  0  0
   -5.6464    3.4462    6.2212 C   0  0  0  0  0  0  0  0  0  0  0  0
   -9.9280    4.0858    7.2610 C   0  0  0  0  0  0  0  0  0  0  0  0
  1  2  1  0
  2  3  2  0
  3  4  1  0
  4  5  1  0
  5  6  1  0
  6  7  1  0
  4  8  1  0
  4  9  1  0
  3 10  1  0
 10 11  2  3
 11 12  1  0
 12 13  2  3
 13 14  1  0
 14 15  2  3
 15 16  1  0
 16 17  2  3
 17 18  1  0
 18 19  1  0
 19 20  1  0
 20 21  1  0
 21 22  1  0
 22 23  1  0
 23 24  1  0
 24 25  1  0
 25 26  2  0
 25 27  1  0
 24 28  1  0
 16 29  1  0
 12 30  1  0
  7  2  1  0
M  END
$$$$
