
     RDKit          3D

 30 30  0  0  0  0  0  0  0  0999 V2000
   -9.7223    0.2782    9.2328 C   0  0  0  0  0  0  0  0  0  0  0  0
  -10.9458    0.8419    8.6208 C   0  0  0  0  0  0  0  0  0  0  0  0
  -10.9795    1.5783    7.5505 C   0  0  0  0  0  0  0  0  0  0  0  0
  -12.2950    2.0974    7.0176 C   0  0  0  0  0  0  0  0  0  0  0  0
  -13.4819    1.2718    7.3040 C   0  0  0  0  0  0  0  0  0  0  0  0
  -13.3086    0.1739    8.2949 C   0  0  0  0  0  0  0  0  0  0  0  0
  -12.2473    0.5257    9.3153 C   0  0  0  0  0  0  0  0  0  0  0  0
  -12.1651    2.3970    5.5217 C   0  0  0  0  0  0  0  0  0  0  0  0
  -12.4860    3.4625    7.6826 C   0  0  0  0  0  0  0  0  0  0  0  0
   -9.8031    1.9756    6.8014 C   0  0  0  0  0  0  0  0  0  0  0  0
   -8.6166    1.5322    6.6939 C   0  0  0  0  0  0  0  0  0  0  0  0
   -7.5470    2.2573    6.0151 C   0  0  0  0  0  0  0  0  0  0  0  0
   -6.2902    2.1812    6.5727 C   0  0  0  0  0  0  0  0  0  0  0  0
   -5.2722    1.4257    5.9319 C   0  0  0  0  0  0  0  0  0  0  0  0
   -4.0411    1.6689    5.6422 C   0  0  0  0  0  0  0  0  0  0  0  0
   -2.9099    1.8430    6.5166 C   0  0  0  0  0  0  0  0  0  0  0  0
   -2.2227    0.7276    6.8704 C   0  0  0  0  0  0  0  0  0  0  0  0
   -0.9378    0.3508    6.3274 C   0  0  0  0  0  0  0  0  0  0  0  0
   -0.5942   -0.9888    6.1748 N   0  0  0  0  0  0  0  0  0  0  0  0
   -1.2609   -1.9116    5.3758 C   0  0  0  0  0  0  0  0  0  0  0  0
   -0.7121   -2.0374    3.9915 C   0  0  0  0  0  0  0  0  0  0  0  0
   -1.0324   -0.8009    3.1485 C   0  0  0  0  0  0  0  0  0  0  0  0
   -0.3409   -0.9776    1.8415 C   0  0  0  0  0  0  0  0  0  0  0  0
   -1.2087   -1.4960    0.7296 C   0  0  0  0  0  0  0  0  0  0  0  0
   -0.3661   -1.8683   -0.4238 C   0  0  0  0  0  0  0  0  0  0  0  0
   -0.3510   -1.1419   -1.4453 O   0  0  0  0  0  0  0  0  0  0  0  0
    0.4058   -2.9973   -0.3991 O   0  0  0  0  0  0  0  0  0  0  0  0
   -1.8656   -2.6918    1.2600 N   0  0  0  0  0  0  0  0  0  0  0  0
   -2.4562    3.1590    6.9602 C   0  0  0  0  0  0  0  0  0  0  0  0
   -7.6743    3.0503    4.8081 C   0  0  0  0  0  0  0  0  0  0  0  0
  1  2  1  0
  2  3  2  0
  3  4  1  0
  4  5  1  0
  5  6  1  0
  6  7  1  0
  4  8  1  0
  4  9  1  0
  3 10  1  0
 10 11  2  3
 11 12  1  0
 12 13  2  3
 13 14  1  0
 14 15  2  3
 15 16  1  0
 16 17  2  3
 17 18  1  0
 18 19  1  0
 19 20  1  0
 20 21  1  0
 21 22  1  0
 22 23  1  0
 23 24  1  0
 24 25  1  0
 25 26  2  0
 25 27  1  0
 24 28  1  0
 16 29  1  0
 12 30  1  0
  7  2  1  0
M  END
$$$$
