
     RDKit          3D

 30 30  0  0  0  0  0  0  0  0999 V2000
   -8.0836    1.2377   12.1348 C   0  0  0  0  0  0  0  0  0  0  0  0
   -6.9747    0.2729   12.3048 C   0  0  0  0  0  0  0  0  0  0  0  0
   -5.9021    0.2248   11.5727 C   0  0  0  0  0  0  0  0  0  0  0  0
   -4.8337   -0.8091   11.8441 C   0  0  0  0  0  0  0  0  0  0  0  0
   -4.7177   -1.2711   13.2389 C   0  0  0  0  0  0  0  0  0  0  0  0
   -5.8154   -0.8795   14.1657 C   0  0  0  0  0  0  0  0  0  0  0  0
   -7.1257   -0.7287   13.4228 C   0  0  0  0  0  0  0  0  0  0  0  0
   -3.4893   -0.3191   11.2994 C   0  0  0  0  0  0  0  0  0  0  0  0
   -5.2053   -2.0084   10.9689 C   0  0  0  0  0  0  0  0  0  0  0  0
   -5.6423    1.1108   10.4544 C   0  0  0  0  0  0  0  0  0  0  0  0
   -4.6212    1.3915    9.7512 C   0  0  0  0  0  0  0  0  0  0  0  0
   -4.6446    2.3453    8.6466 C   0  0  0  0  0  0  0  0  0  0  0  0
   -3.9365    2.0068    7.5150 C   0  0  0  0  0  0  0  0  0  0  0  0
   -4.5894    1.9615    6.2543 C   0  0  0  0  0  0  0  0  0  0  0  0
   -4.1920    1.6753    5.0632 C   0  0  0  0  0  0  0  0  0  0  0  0
   -4.9482    1.5834    3.8408 C   0  0  0  0  0  0  0  0  0  0  0  0
   -4.4600    0.7710    2.8696 C   0  0  0  0  0  0  0  0  0  0  0  0
   -4.3475    1.1367    1.4763 C   0  0  0  0  0  0  0  0  0  0  0  0
   -3.1222    1.0735    0.8202 N   0  0  0  0  0  0  0  0  0  0  0  0
   -2.9280    1.2051   -0.5507 C   0  0  0  0  0  0  0  0  0  0  0  0
   -2.6310   -0.0782   -1.2566 C   0  0  0  0  0  0  0  0  0  0  0  0
   -1.2698   -0.6421   -0.8425 C   0  0  0  0  0  0  0  0  0  0  0  0
   -0.5018   -0.8821   -2.0954 C   0  0  0  0  0  0  0  0  0  0  0  0
    0.9696   -0.5912   -2.0033 C   0  0  0  0  0  0  0  0  0  0  0  0
    1.6230   -1.6060   -1.1535 C   0  0  0  0  0  0  0  0  0  0  0  0
    1.6959   -1.4289    0.0853 O   0  0  0  0  0  0  0  0  0  0  0  0
    2.1525   -2.7452   -1.6948 O   0  0  0  0  0  0  0  0  0  0  0  0
    1.4837   -0.6949   -3.3698 N   0  0  0  0  0  0  0  0  0  0  0  0
   -6.2257    2.2675    3.6552 C   0  0  0  0  0  0  0  0  0  0  0  0
   -5.3419    3.6160    8.6196 C   0  0  0  0  0  0  0  0  0  0  0  0
  1  2  1  0
  2  3  2  0
  3  4  1  0
  4  5  1  0
  5  6  1  0
  6  7  1  0
  4  8  1  0
  4  9  1  0
  3 10  1  0
 10 11  2  3
 11 12  1  0
 12 13  2  3
 13 14  1  0
 14 15  2  3
 15 16  1  0
 16 17  2  3
 17 18  1  0
 18 19  1  0
 19 20  1  0
 20 21  1  0
 21 22  1  0
 22 23  1  0
 23 24  1  0
 24 25  1  0
 25 26  2  0
 25 27  1  0
 24 28  1  0
 16 29  1  0
 12 30  1  0
  7  2  1  0
M  END
$$$$
