
     RDKit          3D

 30 30  0  0  0  0  0  0  0  0999 V2000
  -11.2761    3.6648    6.6535 C   0  0  0  0  0  0  0  0  0  0  0  0
  -12.0597    2.4111    6.7144 C   0  0  0  0  0  0  0  0  0  0  0  0
  -11.7510    1.3660    7.4225 C   0  0  0  0  0  0  0  0  0  0  0  0
  -12.6334    0.1392    7.4046 C   0  0  0  0  0  0  0  0  0  0  0  0
  -14.0641    0.3732    7.1388 C   0  0  0  0  0  0  0  0  0  0  0  0
  -14.4412    1.7324    6.6615 C   0  0  0  0  0  0  0  0  0  0  0  0
  -13.3126    2.3645    5.8753 C   0  0  0  0  0  0  0  0  0  0  0  0
  -12.4237   -0.6676    8.6889 C   0  0  0  0  0  0  0  0  0  0  0  0
  -12.0732   -0.7409    6.2849 C   0  0  0  0  0  0  0  0  0  0  0  0
  -10.5657    1.2693    8.2525 C   0  0  0  0  0  0  0  0  0  0  0  0
   -9.5280    1.9841    8.4205 C   0  0  0  0  0  0  0  0  0  0  0  0
   -8.3786    1.5571    9.2123 C   0  0  0  0  0  0  0  0  0  0  0  0
   -7.1470    1.6006    8.5978 C   0  0  0  0  0  0  0  0  0  0  0  0
   -6.1095    2.4053    9.1400 C   0  0  0  0  0  0  0  0  0  0  0  0
   -5.2463    3.2049    8.6164 C   0  0  0  0  0  0  0  0  0  0  0  0
   -3.9723    2.9116    8.0118 C   0  0  0  0  0  0  0  0  0  0  0  0
   -3.6767    3.5474    6.8499 C   0  0  0  0  0  0  0  0  0  0  0  0
   -2.9409    2.9549    5.7566 C   0  0  0  0  0  0  0  0  0  0  0  0
   -3.4669    2.9418    4.4686 N   0  0  0  0  0  0  0  0  0  0  0  0
   -3.5821    1.8230    3.6505 C   0  0  0  0  0  0  0  0  0  0  0  0
   -2.2845    1.3255    3.1011 C   0  0  0  0  0  0  0  0  0  0  0  0
   -1.9210   -0.0442    3.6791 C   0  0  0  0  0  0  0  0  0  0  0  0
   -1.3853   -0.8599    2.5544 C   0  0  0  0  0  0  0  0  0  0  0  0
   -0.8574   -2.2113    2.9460 C   0  0  0  0  0  0  0  0  0  0  0  0
    0.1034   -2.0649    4.0569 C   0  0  0  0  0  0  0  0  0  0  0  0
    0.5480   -0.9305    4.3515 O   0  0  0  0  0  0  0  0  0  0  0  0
    0.5197   -3.1502    4.7778 O   0  0  0  0  0  0  0  0  0  0  0  0
   -2.0185   -2.9766    3.4028 N   0  0  0  0  0  0  0  0  0  0  0  0
   -2.9918    2.0275    8.6375 C   0  0  0  0  0  0  0  0  0  0  0  0
   -8.4025    1.0925   10.5854 C   0  0  0  0  0  0  0  0  0  0  0  0
  1  2  1  0
  2  3  2  0
  3  4  1  0
  4  5  1  0
  5  6  1  0
  6  7  1  0
  4  8  1  0
  4  9  1  0
  3 10  1  0
 10 11  2  3
 11 12  1  0
 12 13  2  3
 13 14  1  0
 14 15  2  3
 15 16  1  0
 16 17  2  3
 17 18  1  0
 18 19  1  0
 19 20  1  0
 20 21  1  0
 21 22  1  0
 22 23  1  0
 23 24  1  0
 24 25  1  0
 25 26  2  0
 25 27  1  0
 24 28  1  0
 16 29  1  0
 12 30  1  0
  7  2  1  0
M  END
$$$$
