
     RDKit          3D

 30 30  0  0  0  0  0  0  0  0999 V2000
   -2.4106    4.8268    8.6622 C   0  0  0  0  0  0  0  0  0  0  0  0
   -1.9310    4.7562   10.0601 C   0  0  0  0  0  0  0  0  0  0  0  0
   -2.5507    4.1657   11.0379 C   0  0  0  0  0  0  0  0  0  0  0  0
   -1.9590    4.1590   12.4286 C   0  0  0  0  0  0  0  0  0  0  0  0
   -0.4890    4.2290   12.5082 C   0  0  0  0  0  0  0  0  0  0  0  0
    0.2331    4.5609   11.2490 C   0  0  0  0  0  0  0  0  0  0  0  0
   -0.6154    5.4350   10.3506 C   0  0  0  0  0  0  0  0  0  0  0  0
   -2.5100    2.9694   13.2195 C   0  0  0  0  0  0  0  0  0  0  0  0
   -2.5380    5.3975   13.1163 C   0  0  0  0  0  0  0  0  0  0  0  0
   -3.8305    3.4973   10.9018 C   0  0  0  0  0  0  0  0  0  0  0  0
   -4.5035    3.0395    9.9254 C   0  0  0  0  0  0  0  0  0  0  0  0
   -5.9292    2.7368   10.0048 C   0  0  0  0  0  0  0  0  0  0  0  0
   -6.4103    1.7702    9.1501 C   0  0  0  0  0  0  0  0  0  0  0  0
   -5.5388    1.1492    8.2160 C   0  0  0  0  0  0  0  0  0  0  0  0
   -5.7366    0.4485    7.1536 C   0  0  0  0  0  0  0  0  0  0  0  0
   -5.8828    0.8765    5.7862 C   0  0  0  0  0  0  0  0  0  0  0  0
   -4.7928    0.7731    4.9845 C   0  0  0  0  0  0  0  0  0  0  0  0
   -4.8430    0.5159    3.5635 C   0  0  0  0  0  0  0  0  0  0  0  0
   -3.9990    1.1912    2.6874 N   0  0  0  0  0  0  0  0  0  0  0  0
   -2.6170    1.0495    2.6208 C   0  0  0  0  0  0  0  0  0  0  0  0
   -2.1523   -0.3501    2.3792 C   0  0  0  0  0  0  0  0  0  0  0  0
   -2.1886   -0.7020    0.8902 C   0  0  0  0  0  0  0  0  0  0  0  0
   -0.8361   -1.2129    0.5336 C   0  0  0  0  0  0  0  0  0  0  0  0
   -0.7663   -1.9744   -0.7600 C   0  0  0  0  0  0  0  0  0  0  0  0
    0.6331   -2.0321   -1.2261 C   0  0  0  0  0  0  0  0  0  0  0  0
    1.5116   -1.3500   -0.6479 O   0  0  0  0  0  0  0  0  0  0  0  0
    0.9932   -2.8224   -2.2829 O   0  0  0  0  0  0  0  0  0  0  0  0
   -1.2344   -3.3269   -0.4532 N   0  0  0  0  0  0  0  0  0  0  0  0
   -7.1571    1.3381    5.2404 C   0  0  0  0  0  0  0  0  0  0  0  0
   -6.8925    3.3516   10.8969 C   0  0  0  0  0  0  0  0  0  0  0  0
  1  2  1  0
  2  3  2  0
  3  4  1  0
  4  5  1  0
  5  6  1  0
  6  7  1  0
  4  8  1  0
  4  9  1  0
  3 10  1  0
 10 11  2  3
 11 12  1  0
 12 13  2  3
 13 14  1  0
 14 15  2  3
 15 16  1  0
 16 17  2  3
 17 18  1  0
 18 19  1  0
 19 20  1  0
 20 21  1  0
 21 22  1  0
 22 23  1  0
 23 24  1  0
 24 25  1  0
 25 26  2  0
 25 27  1  0
 24 28  1  0
 16 29  1  0
 12 30  1  0
  7  2  1  0
M  END
$$$$
