
     RDKit          3D

 17 18  0  0  0  0  0  0  0  0999 V2000
   -8.5375    2.6780    4.8855 C   0  0  0  0  0  0  0  0  0  0  0  0
   -7.4155    3.2457    4.0692 C   0  0  0  0  0  0  0  0  0  0  0  0
   -6.3301    2.4843    3.8112 N   0  0  0  0  0  0  0  0  0  0  0  0
   -5.3336    3.0329    3.0539 C   0  0  0  0  0  0  0  0  0  0  0  0
   -5.4508    4.3207    2.5792 C   0  0  0  0  0  0  0  0  0  0  0  0
   -6.5377    5.1188    2.8238 C   0  0  0  0  0  0  0  0  0  0  0  0
   -7.5441    4.5380    3.5996 C   0  0  0  0  0  0  0  0  0  0  0  0
   -4.2311    2.1683    2.8131 C   0  0  0  0  0  0  0  0  0  0  0  0
   -3.2786    1.4376    2.5894 C   0  0  0  0  0  0  0  0  0  0  0  0
   -2.1479    0.5989    2.3164 C   0  0  0  0  0  0  0  0  0  0  0  0
   -1.7548    0.1655    1.0793 C   0  0  0  0  0  0  0  0  0  0  0  0
   -0.6585   -0.6146    0.8561 C   0  0  0  0  0  0  0  0  0  0  0  0
    0.1371   -1.0214    1.9097 C   0  0  0  0  0  0  0  0  0  0  0  0
   -0.2130   -0.6150    3.1813 C   0  0  0  0  0  0  0  0  0  0  0  0
   -1.3185    0.1686    3.3718 C   0  0  0  0  0  0  0  0  0  0  0  0
   -0.3230   -1.0077   -0.4138 O   0  0  0  0  0  0  0  0  0  0  0  0
   -0.9903   -0.6485   -1.5802 C   0  0  0  0  0  0  0  0  0  0  0  0
  1  2  1  0
  2  3  2  0
  3  4  1  0
  4  5  2  0
  5  6  1  0
  6  7  2  0
  4  8  1  0
  8  9  3  0
  9 10  1  0
 10 11  2  0
 11 12  1  0
 12 13  2  0
 13 14  1  0
 14 15  2  0
 12 16  1  0
 16 17  1  0
  7  2  1  0
 15 10  1  0
M  END
$$$$
