
     RDKit          3D

 17 18  0  0  0  0  0  0  0  0999 V2000
   -8.3480    7.7730    3.5089 C   0  0  0  0  0  0  0  0  0  0  0  0
   -7.6400    7.0674    2.3915 C   0  0  0  0  0  0  0  0  0  0  0  0
   -6.6932    6.1483    2.6802 N   0  0  0  0  0  0  0  0  0  0  0  0
   -6.0786    5.5182    1.6349 C   0  0  0  0  0  0  0  0  0  0  0  0
   -6.4268    5.8241    0.3377 C   0  0  0  0  0  0  0  0  0  0  0  0
   -7.3817    6.7515    0.0118 C   0  0  0  0  0  0  0  0  0  0  0  0
   -7.9970    7.3832    1.0954 C   0  0  0  0  0  0  0  0  0  0  0  0
   -5.1046    4.5554    2.0163 C   0  0  0  0  0  0  0  0  0  0  0  0
   -4.2612    3.7276    2.3237 C   0  0  0  0  0  0  0  0  0  0  0  0
   -3.2527    2.7708    2.6758 C   0  0  0  0  0  0  0  0  0  0  0  0
   -2.9479    1.6362    1.9738 C   0  0  0  0  0  0  0  0  0  0  0  0
   -1.9651    0.7597    2.3284 C   0  0  0  0  0  0  0  0  0  0  0  0
   -1.2019    0.9836    3.4580 C   0  0  0  0  0  0  0  0  0  0  0  0
   -1.4666    2.1128    4.2062 C   0  0  0  0  0  0  0  0  0  0  0  0
   -2.4590    2.9733    3.8229 C   0  0  0  0  0  0  0  0  0  0  0  0
   -1.7131   -0.3562    1.5728 O   0  0  0  0  0  0  0  0  0  0  0  0
   -0.4886   -1.0072    1.4655 C   0  0  0  0  0  0  0  0  0  0  0  0
  1  2  1  0
  2  3  2  0
  3  4  1  0
  4  5  2  0
  5  6  1  0
  6  7  2  0
  4  8  1  0
  8  9  3  0
  9 10  1  0
 10 11  2  0
 11 12  1  0
 12 13  2  0
 13 14  1  0
 14 15  2  0
 12 16  1  0
 16 17  1  0
  7  2  1  0
 15 10  1  0
M  END
$$$$
