
     RDKit          3D

 17 18  0  0  0  0  0  0  0  0999 V2000
   -8.1926    1.9810    4.9316 C   0  0  0  0  0  0  0  0  0  0  0  0
   -6.9101    2.6579    4.5513 C   0  0  0  0  0  0  0  0  0  0  0  0
   -6.2195    2.2177    3.4771 N   0  0  0  0  0  0  0  0  0  0  0  0
   -5.0615    2.8677    3.1552 C   0  0  0  0  0  0  0  0  0  0  0  0
   -4.6295    3.9337    3.9134 C   0  0  0  0  0  0  0  0  0  0  0  0
   -5.3061    4.4036    5.0086 C   0  0  0  0  0  0  0  0  0  0  0  0
   -6.4870    3.7247    5.3193 C   0  0  0  0  0  0  0  0  0  0  0  0
   -4.3978    2.3575    2.0062 C   0  0  0  0  0  0  0  0  0  0  0  0
   -3.8311    1.8993    1.0264 C   0  0  0  0  0  0  0  0  0  0  0  0
   -3.1474    1.3785   -0.1216 C   0  0  0  0  0  0  0  0  0  0  0  0
   -2.0590    0.5493   -0.0952 C   0  0  0  0  0  0  0  0  0  0  0  0
   -1.4480    0.0556   -1.2101 C   0  0  0  0  0  0  0  0  0  0  0  0
   -1.9161    0.3832   -2.4679 C   0  0  0  0  0  0  0  0  0  0  0  0
   -3.0115    1.2183   -2.5550 C   0  0  0  0  0  0  0  0  0  0  0  0
   -3.6028    1.6962   -1.4172 C   0  0  0  0  0  0  0  0  0  0  0  0
   -0.3622   -0.7752   -1.1062 O   0  0  0  0  0  0  0  0  0  0  0  0
    0.6176   -0.9593   -2.0761 C   0  0  0  0  0  0  0  0  0  0  0  0
  1  2  1  0
  2  3  2  0
  3  4  1  0
  4  5  2  0
  5  6  1  0
  6  7  2  0
  4  8  1  0
  8  9  3  0
  9 10  1  0
 10 11  2  0
 11 12  1  0
 12 13  2  0
 13 14  1  0
 14 15  2  0
 12 16  1  0
 16 17  1  0
  7  2  1  0
 15 10  1  0
M  END
$$$$
