
     RDKit          3D

 17 18  0  0  0  0  0  0  0  0999 V2000
   -2.1190   -0.4676   -2.9433 C   0  0  0  0  0  0  0  0  0  0  0  0
   -1.6479   -0.3291   -1.5268 C   0  0  0  0  0  0  0  0  0  0  0  0
   -2.4397    0.2832   -0.6199 N   0  0  0  0  0  0  0  0  0  0  0  0
   -1.9805    0.3796    0.6635 C   0  0  0  0  0  0  0  0  0  0  0  0
   -0.7487   -0.1364    1.0011 C   0  0  0  0  0  0  0  0  0  0  0  0
    0.0782   -0.7621    0.1051 C   0  0  0  0  0  0  0  0  0  0  0  0
   -0.4110   -0.8496   -1.2007 C   0  0  0  0  0  0  0  0  0  0  0  0
   -2.8733    1.0236    1.5631 C   0  0  0  0  0  0  0  0  0  0  0  0
   -3.6237    1.5870    2.3445 C   0  0  0  0  0  0  0  0  0  0  0  0
   -4.4881    2.2673    3.2647 C   0  0  0  0  0  0  0  0  0  0  0  0
   -5.7727    1.9072    3.5693 C   0  0  0  0  0  0  0  0  0  0  0  0
   -6.5581    2.5671    4.4682 C   0  0  0  0  0  0  0  0  0  0  0  0
   -6.0756    3.6744    5.1386 C   0  0  0  0  0  0  0  0  0  0  0  0
   -4.7854    4.0844    4.8694 C   0  0  0  0  0  0  0  0  0  0  0  0
   -4.0226    3.3999    3.9627 C   0  0  0  0  0  0  0  0  0  0  0  0
   -7.8369    2.1453    4.7261 O   0  0  0  0  0  0  0  0  0  0  0  0
   -9.0024    2.8180    4.3744 C   0  0  0  0  0  0  0  0  0  0  0  0
  1  2  1  0
  2  3  2  0
  3  4  1  0
  4  5  2  0
  5  6  1  0
  6  7  2  0
  4  8  1  0
  8  9  3  0
  9 10  1  0
 10 11  2  0
 11 12  1  0
 12 13  2  0
 13 14  1  0
 14 15  2  0
 12 16  1  0
 16 17  1  0
  7  2  1  0
 15 10  1  0
M  END
$$$$
