
     RDKit          3D

 17 18  0  0  0  0  0  0  0  0999 V2000
   -2.4340   -0.0508   -2.8500 C   0  0  0  0  0  0  0  0  0  0  0  0
   -1.8405    0.1804   -1.4928 C   0  0  0  0  0  0  0  0  0  0  0  0
   -2.5837    0.7761   -0.5352 N   0  0  0  0  0  0  0  0  0  0  0  0
   -2.0119    0.9587    0.6924 C   0  0  0  0  0  0  0  0  0  0  0  0
   -0.7195    0.5427    0.9254 C   0  0  0  0  0  0  0  0  0  0  0  0
    0.0606   -0.0635   -0.0244 C   0  0  0  0  0  0  0  0  0  0  0  0
   -0.5439   -0.2403   -1.2716 C   0  0  0  0  0  0  0  0  0  0  0  0
   -2.8583    1.5787    1.6516 C   0  0  0  0  0  0  0  0  0  0  0  0
   -3.5766    2.1301    2.4709 C   0  0  0  0  0  0  0  0  0  0  0  0
   -4.3998    2.7843    3.4461 C   0  0  0  0  0  0  0  0  0  0  0  0
   -5.7518    2.6256    3.5863 C   0  0  0  0  0  0  0  0  0  0  0  0
   -6.4988    3.2490    4.5420 C   0  0  0  0  0  0  0  0  0  0  0  0
   -5.9030    4.1050    5.4480 C   0  0  0  0  0  0  0  0  0  0  0  0
   -4.5407    4.3043    5.3527 C   0  0  0  0  0  0  0  0  0  0  0  0
   -3.8191    3.6629    4.3830 C   0  0  0  0  0  0  0  0  0  0  0  0
   -7.8511    3.0381    4.6248 O   0  0  0  0  0  0  0  0  0  0  0  0
   -8.6085    2.2612    3.7546 C   0  0  0  0  0  0  0  0  0  0  0  0
  1  2  1  0
  2  3  2  0
  3  4  1  0
  4  5  2  0
  5  6  1  0
  6  7  2  0
  4  8  1  0
  8  9  3  0
  9 10  1  0
 10 11  2  0
 11 12  1  0
 12 13  2  0
 13 14  1  0
 14 15  2  0
 12 16  1  0
 16 17  1  0
  7  2  1  0
 15 10  1  0
M  END
$$$$
