
     RDKit          3D

 17 18  0  0  0  0  0  0  0  0999 V2000
   -8.4126    2.3186    4.6371 C   0  0  0  0  0  0  0  0  0  0  0  0
   -6.9800    2.7595    4.6627 C   0  0  0  0  0  0  0  0  0  0  0  0
   -6.0751    2.1239    3.8870 N   0  0  0  0  0  0  0  0  0  0  0  0
   -4.7815    2.5623    3.9289 C   0  0  0  0  0  0  0  0  0  0  0  0
   -4.4320    3.6183    4.7416 C   0  0  0  0  0  0  0  0  0  0  0  0
   -5.3253    4.2831    5.5404 C   0  0  0  0  0  0  0  0  0  0  0  0
   -6.6417    3.8185    5.4818 C   0  0  0  0  0  0  0  0  0  0  0  0
   -3.8905    1.8546    3.0767 C   0  0  0  0  0  0  0  0  0  0  0  0
   -3.1089    1.2522    2.3574 C   0  0  0  0  0  0  0  0  0  0  0  0
   -2.2060    0.5494    1.4930 C   0  0  0  0  0  0  0  0  0  0  0  0
   -2.4331    0.2441    0.1784 C   0  0  0  0  0  0  0  0  0  0  0  0
   -1.5396   -0.4075   -0.6197 C   0  0  0  0  0  0  0  0  0  0  0  0
   -0.3157   -0.8073   -0.1189 C   0  0  0  0  0  0  0  0  0  0  0  0
   -0.0328   -0.5271    1.2026 C   0  0  0  0  0  0  0  0  0  0  0  0
   -0.9505    0.1294    1.9769 C   0  0  0  0  0  0  0  0  0  0  0  0
   -1.8350   -0.6759   -1.9314 O   0  0  0  0  0  0  0  0  0  0  0  0
   -3.0663   -0.4746   -2.5461 C   0  0  0  0  0  0  0  0  0  0  0  0
  1  2  1  0
  2  3  2  0
  3  4  1  0
  4  5  2  0
  5  6  1  0
  6  7  2  0
  4  8  1  0
  8  9  3  0
  9 10  1  0
 10 11  2  0
 11 12  1  0
 12 13  2  0
 13 14  1  0
 14 15  2  0
 12 16  1  0
 16 17  1  0
  7  2  1  0
 15 10  1  0
M  END
$$$$
