
     RDKit          3D

 17 18  0  0  0  0  0  0  0  0999 V2000
   -8.4398    1.8424    4.3650 C   0  0  0  0  0  0  0  0  0  0  0  0
   -7.0470    2.3964    4.3911 C   0  0  0  0  0  0  0  0  0  0  0  0
   -6.0993    1.8493    3.5994 N   0  0  0  0  0  0  0  0  0  0  0  0
   -4.8447    2.3893    3.6426 C   0  0  0  0  0  0  0  0  0  0  0  0
   -4.5756    3.4554    4.4724 C   0  0  0  0  0  0  0  0  0  0  0  0
   -5.5140    4.0322    5.2878 C   0  0  0  0  0  0  0  0  0  0  0  0
   -6.7893    3.4646    5.2276 C   0  0  0  0  0  0  0  0  0  0  0  0
   -3.9055    1.7706    2.7730 C   0  0  0  0  0  0  0  0  0  0  0  0
   -3.0884    1.2314    2.0431 C   0  0  0  0  0  0  0  0  0  0  0  0
   -2.1158    0.5910    1.2062 C   0  0  0  0  0  0  0  0  0  0  0  0
   -2.2472    0.3556   -0.1355 C   0  0  0  0  0  0  0  0  0  0  0  0
   -1.2894   -0.2375   -0.9042 C   0  0  0  0  0  0  0  0  0  0  0  0
   -0.0952   -0.6460   -0.3426 C   0  0  0  0  0  0  0  0  0  0  0  0
    0.0918   -0.4351    1.0085 C   0  0  0  0  0  0  0  0  0  0  0  0
   -0.8885    0.1637    1.7521 C   0  0  0  0  0  0  0  0  0  0  0  0
   -1.4898   -0.4374   -2.2457 O   0  0  0  0  0  0  0  0  0  0  0  0
   -2.6948   -0.2770   -2.9216 C   0  0  0  0  0  0  0  0  0  0  0  0
  1  2  1  0
  2  3  2  0
  3  4  1  0
  4  5  2  0
  5  6  1  0
  6  7  2  0
  4  8  1  0
  8  9  3  0
  9 10  1  0
 10 11  2  0
 11 12  1  0
 12 13  2  0
 13 14  1  0
 14 15  2  0
 12 16  1  0
 16 17  1  0
  7  2  1  0
 15 10  1  0
M  END
$$$$
