
     RDKit          3D

 17 18  0  0  0  0  0  0  0  0999 V2000
   -2.4440    0.1037   -3.0061 C   0  0  0  0  0  0  0  0  0  0  0  0
   -2.0378    0.2240   -1.5680 C   0  0  0  0  0  0  0  0  0  0  0  0
   -2.9156    0.7193   -0.6687 N   0  0  0  0  0  0  0  0  0  0  0  0
   -2.5127    0.8023    0.6344 C   0  0  0  0  0  0  0  0  0  0  0  0
   -1.2498    0.3900    0.9986 C   0  0  0  0  0  0  0  0  0  0  0  0
   -0.3363   -0.1157    0.1110 C   0  0  0  0  0  0  0  0  0  0  0  0
   -0.7691   -0.1918   -1.2152 C   0  0  0  0  0  0  0  0  0  0  0  0
   -3.4937    1.3198    1.5237 C   0  0  0  0  0  0  0  0  0  0  0  0
   -4.3369    1.7824    2.2763 C   0  0  0  0  0  0  0  0  0  0  0  0
   -5.3450    2.3181    3.1441 C   0  0  0  0  0  0  0  0  0  0  0  0
   -5.1437    3.2585    4.1177 C   0  0  0  0  0  0  0  0  0  0  0  0
   -6.1333    3.7612    4.9102 C   0  0  0  0  0  0  0  0  0  0  0  0
   -7.4364    3.3267    4.7629 C   0  0  0  0  0  0  0  0  0  0  0  0
   -7.6980    2.3767    3.7964 C   0  0  0  0  0  0  0  0  0  0  0  0
   -6.6829    1.8931    3.0166 C   0  0  0  0  0  0  0  0  0  0  0  0
   -5.8572    4.7065    5.8641 O   0  0  0  0  0  0  0  0  0  0  0  0
   -4.6324    5.3377    6.0540 C   0  0  0  0  0  0  0  0  0  0  0  0
  1  2  1  0
  2  3  2  0
  3  4  1  0
  4  5  2  0
  5  6  1  0
  6  7  2  0
  4  8  1  0
  8  9  3  0
  9 10  1  0
 10 11  2  0
 11 12  1  0
 12 13  2  0
 13 14  1  0
 14 15  2  0
 12 16  1  0
 16 17  1  0
  7  2  1  0
 15 10  1  0
M  END
$$$$
