
     RDKit          3D

 17 18  0  0  0  0  0  0  0  0999 V2000
    1.4625   -0.5341    1.6667 C   0  0  0  0  0  0  0  0  0  0  0  0
    0.0879   -0.3738    1.0900 C   0  0  0  0  0  0  0  0  0  0  0  0
   -0.8658    0.2553    1.8105 N   0  0  0  0  0  0  0  0  0  0  0  0
   -2.1027    0.3924    1.2462 C   0  0  0  0  0  0  0  0  0  0  0  0
   -2.3490   -0.1016   -0.0159 C   0  0  0  0  0  0  0  0  0  0  0  0
   -1.4040   -0.7449   -0.7717 C   0  0  0  0  0  0  0  0  0  0  0  0
   -0.1470   -0.8737   -0.1756 C   0  0  0  0  0  0  0  0  0  0  0  0
   -3.0491    1.0761    2.0573 C   0  0  0  0  0  0  0  0  0  0  0  0
   -3.8672    1.6449    2.7633 C   0  0  0  0  0  0  0  0  0  0  0  0
   -4.8280    2.2929    3.6079 C   0  0  0  0  0  0  0  0  0  0  0  0
   -6.1341    1.9169    3.7672 C   0  0  0  0  0  0  0  0  0  0  0  0
   -7.0140    2.5457    4.5981 C   0  0  0  0  0  0  0  0  0  0  0  0
   -6.6131    3.6356    5.3464 C   0  0  0  0  0  0  0  0  0  0  0  0
   -5.3057    4.0605    5.2244 C   0  0  0  0  0  0  0  0  0  0  0  0
   -4.4471    3.4073    4.3826 C   0  0  0  0  0  0  0  0  0  0  0  0
   -8.3090    2.1094    4.7098 O   0  0  0  0  0  0  0  0  0  0  0  0
   -9.4299    2.9181    4.8653 C   0  0  0  0  0  0  0  0  0  0  0  0
  1  2  1  0
  2  3  2  0
  3  4  1  0
  4  5  2  0
  5  6  1  0
  6  7  2  0
  4  8  1  0
  8  9  3  0
  9 10  1  0
 10 11  2  0
 11 12  1  0
 12 13  2  0
 13 14  1  0
 14 15  2  0
 12 16  1  0
 16 17  1  0
  7  2  1  0
 15 10  1  0
M  END
$$$$
