
     RDKit          3D

 17 18  0  0  0  0  0  0  0  0999 V2000
   -1.9461   -0.2640   -2.1626 C   0  0  0  0  0  0  0  0  0  0  0  0
   -1.4578    0.0806   -0.7877 C   0  0  0  0  0  0  0  0  0  0  0  0
   -2.2914    0.6962    0.0787 N   0  0  0  0  0  0  0  0  0  0  0  0
   -1.8136    0.9834    1.3263 C   0  0  0  0  0  0  0  0  0  0  0  0
   -0.5222    0.6486    1.6695 C   0  0  0  0  0  0  0  0  0  0  0  0
    0.3480    0.0249    0.8141 C   0  0  0  0  0  0  0  0  0  0  0  0
   -0.1612   -0.2593   -0.4555 C   0  0  0  0  0  0  0  0  0  0  0  0
   -2.7513    1.6181    2.1859 C   0  0  0  0  0  0  0  0  0  0  0  0
   -3.5499    2.1822    2.9174 C   0  0  0  0  0  0  0  0  0  0  0  0
   -4.5065    2.8380    3.7609 C   0  0  0  0  0  0  0  0  0  0  0  0
   -5.8671    2.7595    3.6374 C   0  0  0  0  0  0  0  0  0  0  0  0
   -6.7470    3.3807    4.4740 C   0  0  0  0  0  0  0  0  0  0  0  0
   -6.2885    4.1501    5.5258 C   0  0  0  0  0  0  0  0  0  0  0  0
   -4.9240    4.2663    5.6978 C   0  0  0  0  0  0  0  0  0  0  0  0
   -4.0673    3.6294    4.8416 C   0  0  0  0  0  0  0  0  0  0  0  0
   -8.0998    3.2530    4.2909 O   0  0  0  0  0  0  0  0  0  0  0  0
   -8.7491    2.1391    3.7692 C   0  0  0  0  0  0  0  0  0  0  0  0
  1  2  1  0
  2  3  2  0
  3  4  1  0
  4  5  2  0
  5  6  1  0
  6  7  2  0
  4  8  1  0
  8  9  3  0
  9 10  1  0
 10 11  2  0
 11 12  1  0
 12 13  2  0
 13 14  1  0
 14 15  2  0
 12 16  1  0
 16 17  1  0
  7  2  1  0
 15 10  1  0
M  END
$$$$
