
     RDKit          3D

 17 18  0  0  0  0  0  0  0  0999 V2000
   -8.5321    2.2028    4.7268 C   0  0  0  0  0  0  0  0  0  0  0  0
   -7.1462    2.7713    4.6670 C   0  0  0  0  0  0  0  0  0  0  0  0
   -6.2383    2.2224    3.8311 N   0  0  0  0  0  0  0  0  0  0  0  0
   -4.9893    2.7759    3.7962 C   0  0  0  0  0  0  0  0  0  0  0  0
   -4.6861    3.8567    4.5946 C   0  0  0  0  0  0  0  0  0  0  0  0
   -5.5837    4.4357    5.4532 C   0  0  0  0  0  0  0  0  0  0  0  0
   -6.8539    3.8542    5.4726 C   0  0  0  0  0  0  0  0  0  0  0  0
   -4.0934    2.1542    2.8842 C   0  0  0  0  0  0  0  0  0  0  0  0
   -3.3234    1.6030    2.1133 C   0  0  0  0  0  0  0  0  0  0  0  0
   -2.4112    0.9407    1.2267 C   0  0  0  0  0  0  0  0  0  0  0  0
   -2.5412    0.8512   -0.1326 C   0  0  0  0  0  0  0  0  0  0  0  0
   -1.6398    0.2310   -0.9468 C   0  0  0  0  0  0  0  0  0  0  0  0
   -0.5096   -0.3608   -0.4170 C   0  0  0  0  0  0  0  0  0  0  0  0
   -0.3272   -0.3027    0.9499 C   0  0  0  0  0  0  0  0  0  0  0  0
   -1.2498    0.3282    1.7394 C   0  0  0  0  0  0  0  0  0  0  0  0
   -1.8345    0.1844   -2.3032 O   0  0  0  0  0  0  0  0  0  0  0  0
   -2.8140   -0.5530   -2.9601 C   0  0  0  0  0  0  0  0  0  0  0  0
  1  2  1  0
  2  3  2  0
  3  4  1  0
  4  5  2  0
  5  6  1  0
  6  7  2  0
  4  8  1  0
  8  9  3  0
  9 10  1  0
 10 11  2  0
 11 12  1  0
 12 13  2  0
 13 14  1  0
 14 15  2  0
 12 16  1  0
 16 17  1  0
  7  2  1  0
 15 10  1  0
M  END
$$$$
