
     RDKit          3D

 17 18  0  0  0  0  0  0  0  0999 V2000
   -7.5202    4.6057    3.5718 C   0  0  0  0  0  0  0  0  0  0  0  0
   -6.3336    3.9192    4.1787 C   0  0  0  0  0  0  0  0  0  0  0  0
   -5.4986    3.2116    3.3872 N   0  0  0  0  0  0  0  0  0  0  0  0
   -4.4217    2.6101    3.9753 C   0  0  0  0  0  0  0  0  0  0  0  0
   -4.2124    2.7328    5.3313 C   0  0  0  0  0  0  0  0  0  0  0  0
   -5.0407    3.4422    6.1612 C   0  0  0  0  0  0  0  0  0  0  0  0
   -6.1348    4.0488    5.5391 C   0  0  0  0  0  0  0  0  0  0  0  0
   -3.5817    1.8957    3.0781 C   0  0  0  0  0  0  0  0  0  0  0  0
   -2.8711    1.2901    2.2910 C   0  0  0  0  0  0  0  0  0  0  0  0
   -2.0301    0.6007    1.3562 C   0  0  0  0  0  0  0  0  0  0  0  0
   -2.4160    0.1300    0.1305 C   0  0  0  0  0  0  0  0  0  0  0  0
   -1.5804   -0.5025   -0.7424 C   0  0  0  0  0  0  0  0  0  0  0  0
   -0.2535   -0.7073   -0.4171 C   0  0  0  0  0  0  0  0  0  0  0  0
    0.1912   -0.2544    0.8084 C   0  0  0  0  0  0  0  0  0  0  0  0
   -0.6722    0.3776    1.6614 C   0  0  0  0  0  0  0  0  0  0  0  0
   -2.0375   -0.9442   -1.9572 O   0  0  0  0  0  0  0  0  0  0  0  0
   -3.1466   -0.4525   -2.6374 C   0  0  0  0  0  0  0  0  0  0  0  0
  1  2  1  0
  2  3  2  0
  3  4  1  0
  4  5  2  0
  5  6  1  0
  6  7  2  0
  4  8  1  0
  8  9  3  0
  9 10  1  0
 10 11  2  0
 11 12  1  0
 12 13  2  0
 13 14  1  0
 14 15  2  0
 12 16  1  0
 16 17  1  0
  7  2  1  0
 15 10  1  0
M  END
$$$$
