
     RDKit          3D

 17 18  0  0  0  0  0  0  0  0999 V2000
   -2.1818   -0.3097   -2.9437 C   0  0  0  0  0  0  0  0  0  0  0  0
   -1.6883   -0.1747   -1.5345 C   0  0  0  0  0  0  0  0  0  0  0  0
   -2.4826    0.3981   -0.6043 N   0  0  0  0  0  0  0  0  0  0  0  0
   -2.0022    0.4924    0.6715 C   0  0  0  0  0  0  0  0  0  0  0  0
   -0.7475    0.0138    0.9785 C   0  0  0  0  0  0  0  0  0  0  0  0
    0.0825   -0.5712    0.0582 C   0  0  0  0  0  0  0  0  0  0  0  0
   -0.4286   -0.6575   -1.2392 C   0  0  0  0  0  0  0  0  0  0  0  0
   -2.8986    1.0934    1.5969 C   0  0  0  0  0  0  0  0  0  0  0  0
   -3.6593    1.5988    2.4075 C   0  0  0  0  0  0  0  0  0  0  0  0
   -4.5689    2.1970    3.3410 C   0  0  0  0  0  0  0  0  0  0  0  0
   -5.9040    1.9163    3.4473 C   0  0  0  0  0  0  0  0  0  0  0  0
   -6.7345    2.4905    4.3642 C   0  0  0  0  0  0  0  0  0  0  0  0
   -6.2486    3.4203    5.2630 C   0  0  0  0  0  0  0  0  0  0  0  0
   -4.9083    3.7436    5.2007 C   0  0  0  0  0  0  0  0  0  0  0  0
   -4.1010    3.1488    4.2695 C   0  0  0  0  0  0  0  0  0  0  0  0
   -8.0633    2.1563    4.4146 O   0  0  0  0  0  0  0  0  0  0  0  0
   -9.0573    2.8687    5.0773 C   0  0  0  0  0  0  0  0  0  0  0  0
  1  2  1  0
  2  3  2  0
  3  4  1  0
  4  5  2  0
  5  6  1  0
  6  7  2  0
  4  8  1  0
  8  9  3  0
  9 10  1  0
 10 11  2  0
 11 12  1  0
 12 13  2  0
 13 14  1  0
 14 15  2  0
 12 16  1  0
 16 17  1  0
  7  2  1  0
 15 10  1  0
M  END
$$$$
