
     RDKit          3D

 17 18  0  0  0  0  0  0  0  0999 V2000
   -2.3618   -0.3857   -2.6218 C   0  0  0  0  0  0  0  0  0  0  0  0
   -1.8048   -0.1491   -1.2502 C   0  0  0  0  0  0  0  0  0  0  0  0
   -2.5516    0.5033   -0.3331 N   0  0  0  0  0  0  0  0  0  0  0  0
   -2.0141    0.6892    0.9094 C   0  0  0  0  0  0  0  0  0  0  0  0
   -0.7514    0.2199    1.1972 C   0  0  0  0  0  0  0  0  0  0  0  0
    0.0315   -0.4444    0.2895 C   0  0  0  0  0  0  0  0  0  0  0  0
   -0.5377   -0.6235   -0.9738 C   0  0  0  0  0  0  0  0  0  0  0  0
   -2.8629    1.3706    1.8239 C   0  0  0  0  0  0  0  0  0  0  0  0
   -3.5748    1.9652    2.6181 C   0  0  0  0  0  0  0  0  0  0  0  0
   -4.4245    2.6424    3.5541 C   0  0  0  0  0  0  0  0  0  0  0  0
   -5.7447    2.3633    3.7818 C   0  0  0  0  0  0  0  0  0  0  0  0
   -6.5162    3.0157    4.6979 C   0  0  0  0  0  0  0  0  0  0  0  0
   -5.9810    4.0299    5.4682 C   0  0  0  0  0  0  0  0  0  0  0  0
   -4.6531    4.3556    5.2799 C   0  0  0  0  0  0  0  0  0  0  0  0
   -3.9055    3.6811    4.3532 C   0  0  0  0  0  0  0  0  0  0  0  0
   -7.8333    2.6781    4.8746 O   0  0  0  0  0  0  0  0  0  0  0  0
   -8.6577    2.0895    3.9215 C   0  0  0  0  0  0  0  0  0  0  0  0
  1  2  1  0
  2  3  2  0
  3  4  1  0
  4  5  2  0
  5  6  1  0
  6  7  2  0
  4  8  1  0
  8  9  3  0
  9 10  1  0
 10 11  2  0
 11 12  1  0
 12 13  2  0
 13 14  1  0
 14 15  2  0
 12 16  1  0
 16 17  1  0
  7  2  1  0
 15 10  1  0
M  END
$$$$
