
     RDKit          3D

 17 18  0  0  0  0  0  0  0  0999 V2000
   -2.1024   -0.1363   -2.9774 C   0  0  0  0  0  0  0  0  0  0  0  0
   -1.6081   -0.0149   -1.5672 C   0  0  0  0  0  0  0  0  0  0  0  0
   -2.3968    0.5607   -0.6339 N   0  0  0  0  0  0  0  0  0  0  0  0
   -1.9160    0.6424    0.6427 C   0  0  0  0  0  0  0  0  0  0  0  0
   -0.6665    0.1488    0.9472 C   0  0  0  0  0  0  0  0  0  0  0  0
    0.1577   -0.4395    0.0238 C   0  0  0  0  0  0  0  0  0  0  0  0
   -0.3537   -0.5126   -1.2743 C   0  0  0  0  0  0  0  0  0  0  0  0
   -2.8065    1.2473    1.5712 C   0  0  0  0  0  0  0  0  0  0  0  0
   -3.5777    1.7804    2.3536 C   0  0  0  0  0  0  0  0  0  0  0  0
   -4.4738    2.3926    3.2910 C   0  0  0  0  0  0  0  0  0  0  0  0
   -5.8392    2.3032    3.2665 C   0  0  0  0  0  0  0  0  0  0  0  0
   -6.6591    2.8820    4.1900 C   0  0  0  0  0  0  0  0  0  0  0  0
   -6.1295    3.6159    5.2337 C   0  0  0  0  0  0  0  0  0  0  0  0
   -4.7570    3.7411    5.3077 C   0  0  0  0  0  0  0  0  0  0  0  0
   -3.9616    3.1472    4.3658 C   0  0  0  0  0  0  0  0  0  0  0  0
   -8.0207    2.7459    4.1036 O   0  0  0  0  0  0  0  0  0  0  0  0
   -8.8717    2.3970    5.1470 C   0  0  0  0  0  0  0  0  0  0  0  0
  1  2  1  0
  2  3  2  0
  3  4  1  0
  4  5  2  0
  5  6  1  0
  6  7  2  0
  4  8  1  0
  8  9  3  0
  9 10  1  0
 10 11  2  0
 11 12  1  0
 12 13  2  0
 13 14  1  0
 14 15  2  0
 12 16  1  0
 16 17  1  0
  7  2  1  0
 15 10  1  0
M  END
$$$$
