
     RDKit          3D

 17 18  0  0  0  0  0  0  0  0999 V2000
   -8.2052    5.8606   -0.5724 C   0  0  0  0  0  0  0  0  0  0  0  0
   -7.1929    6.0568    0.5159 C   0  0  0  0  0  0  0  0  0  0  0  0
   -6.3083    5.0724    0.7859 N   0  0  0  0  0  0  0  0  0  0  0  0
   -5.3936    5.2932    1.7768 C   0  0  0  0  0  0  0  0  0  0  0  0
   -5.3903    6.4861    2.4658 C   0  0  0  0  0  0  0  0  0  0  0  0
   -6.2741    7.5034    2.2167 C   0  0  0  0  0  0  0  0  0  0  0  0
   -7.2000    7.2563    1.2000 C   0  0  0  0  0  0  0  0  0  0  0  0
   -4.4881    4.2191    1.9944 C   0  0  0  0  0  0  0  0  0  0  0  0
   -3.7139    3.2978    2.2022 C   0  0  0  0  0  0  0  0  0  0  0  0
   -2.7961    2.2282    2.4665 C   0  0  0  0  0  0  0  0  0  0  0  0
   -2.6307    1.1088    1.6969 C   0  0  0  0  0  0  0  0  0  0  0  0
   -1.7301    0.1213    1.9688 C   0  0  0  0  0  0  0  0  0  0  0  0
   -0.9114    0.2069    3.0783 C   0  0  0  0  0  0  0  0  0  0  0  0
   -1.0359    1.3146    3.8922 C   0  0  0  0  0  0  0  0  0  0  0  0
   -1.9486    2.2887    3.5913 C   0  0  0  0  0  0  0  0  0  0  0  0
   -1.6170   -0.9715    1.1485 O   0  0  0  0  0  0  0  0  0  0  0  0
   -0.5453   -1.8575    1.1159 C   0  0  0  0  0  0  0  0  0  0  0  0
  1  2  1  0
  2  3  2  0
  3  4  1  0
  4  5  2  0
  5  6  1  0
  6  7  2  0
  4  8  1  0
  8  9  3  0
  9 10  1  0
 10 11  2  0
 11 12  1  0
 12 13  2  0
 13 14  1  0
 14 15  2  0
 12 16  1  0
 16 17  1  0
  7  2  1  0
 15 10  1  0
M  END
$$$$
