
     RDKit          3D

 17 18  0  0  0  0  0  0  0  0999 V2000
   -8.0599    2.3864    4.5796 C   0  0  0  0  0  0  0  0  0  0  0  0
   -6.6309    2.8395    4.5651 C   0  0  0  0  0  0  0  0  0  0  0  0
   -5.7653    2.2803    3.6920 N   0  0  0  0  0  0  0  0  0  0  0  0
   -4.4742    2.7280    3.7010 C   0  0  0  0  0  0  0  0  0  0  0  0
   -4.0882    3.7170    4.5788 C   0  0  0  0  0  0  0  0  0  0  0  0
   -4.9412    4.3035    5.4768 C   0  0  0  0  0  0  0  0  0  0  0  0
   -6.2557    3.8308    5.4502 C   0  0  0  0  0  0  0  0  0  0  0  0
   -3.6261    2.1032    2.7464 C   0  0  0  0  0  0  0  0  0  0  0  0
   -2.8876    1.5562    1.9422 C   0  0  0  0  0  0  0  0  0  0  0  0
   -2.0145    0.8966    1.0153 C   0  0  0  0  0  0  0  0  0  0  0  0
   -2.2840    0.6582   -0.3050 C   0  0  0  0  0  0  0  0  0  0  0  0
   -1.4179    0.0466   -1.1629 C   0  0  0  0  0  0  0  0  0  0  0  0
   -0.1799   -0.3794   -0.7219 C   0  0  0  0  0  0  0  0  0  0  0  0
    0.1454   -0.1664    0.6024 C   0  0  0  0  0  0  0  0  0  0  0  0
   -0.7455    0.4513    1.4374 C   0  0  0  0  0  0  0  0  0  0  0  0
   -1.7554   -0.1552   -2.4764 O   0  0  0  0  0  0  0  0  0  0  0  0
   -0.9210   -0.6741   -3.4608 C   0  0  0  0  0  0  0  0  0  0  0  0
  1  2  1  0
  2  3  2  0
  3  4  1  0
  4  5  2  0
  5  6  1  0
  6  7  2  0
  4  8  1  0
  8  9  3  0
  9 10  1  0
 10 11  2  0
 11 12  1  0
 12 13  2  0
 13 14  1  0
 14 15  2  0
 12 16  1  0
 16 17  1  0
  7  2  1  0
 15 10  1  0
M  END
$$$$
