
     RDKit          3D

 17 18  0  0  0  0  0  0  0  0999 V2000
   -0.8586   -1.0069   -0.6749 C   0  0  0  0  0  0  0  0  0  0  0  0
   -0.7453   -0.4131    0.6970 C   0  0  0  0  0  0  0  0  0  0  0  0
   -1.8163    0.1995    1.2465 N   0  0  0  0  0  0  0  0  0  0  0  0
   -1.6774    0.7179    2.5032 C   0  0  0  0  0  0  0  0  0  0  0  0
   -0.4772    0.6094    3.1706 C   0  0  0  0  0  0  0  0  0  0  0  0
    0.6275   -0.0047    2.6408 C   0  0  0  0  0  0  0  0  0  0  0  0
    0.4631   -0.5274    1.3557 C   0  0  0  0  0  0  0  0  0  0  0  0
   -2.8494    1.3343    3.0204 C   0  0  0  0  0  0  0  0  0  0  0  0
   -3.8464    1.8660    3.4835 C   0  0  0  0  0  0  0  0  0  0  0  0
   -5.0157    2.5082    4.0098 C   0  0  0  0  0  0  0  0  0  0  0  0
   -6.0659    2.9842    3.2727 C   0  0  0  0  0  0  0  0  0  0  0  0
   -7.1733    3.5704    3.8112 C   0  0  0  0  0  0  0  0  0  0  0  0
   -7.2912    3.7187    5.1797 C   0  0  0  0  0  0  0  0  0  0  0  0
   -6.2602    3.2578    5.9731 C   0  0  0  0  0  0  0  0  0  0  0  0
   -5.1627    2.6732    5.4019 C   0  0  0  0  0  0  0  0  0  0  0  0
   -8.1900    4.0206    3.0091 O   0  0  0  0  0  0  0  0  0  0  0  0
   -9.5497    3.9181    3.2835 C   0  0  0  0  0  0  0  0  0  0  0  0
  1  2  1  0
  2  3  2  0
  3  4  1  0
  4  5  2  0
  5  6  1  0
  6  7  2  0
  4  8  1  0
  8  9  3  0
  9 10  1  0
 10 11  2  0
 11 12  1  0
 12 13  2  0
 13 14  1  0
 14 15  2  0
 12 16  1  0
 16 17  1  0
  7  2  1  0
 15 10  1  0
M  END
$$$$
