
     RDKit          3D

 17 18  0  0  0  0  0  0  0  0999 V2000
    0.9675   -0.9398    0.2657 C   0  0  0  0  0  0  0  0  0  0  0  0
   -0.3851   -0.4362   -0.1398 C   0  0  0  0  0  0  0  0  0  0  0  0
   -1.1613    0.1904    0.7709 N   0  0  0  0  0  0  0  0  0  0  0  0
   -2.3826    0.6456    0.3603 C   0  0  0  0  0  0  0  0  0  0  0  0
   -2.7904    0.4616   -0.9425 C   0  0  0  0  0  0  0  0  0  0  0  0
   -2.0275   -0.1703   -1.8895 C   0  0  0  0  0  0  0  0  0  0  0  0
   -0.7831   -0.6273   -1.4482 C   0  0  0  0  0  0  0  0  0  0  0  0
   -3.1362    1.3057    1.3690 C   0  0  0  0  0  0  0  0  0  0  0  0
   -3.7958    1.8553    2.2374 C   0  0  0  0  0  0  0  0  0  0  0  0
   -4.5852    2.4805    3.2583 C   0  0  0  0  0  0  0  0  0  0  0  0
   -5.8430    2.1003    3.6408 C   0  0  0  0  0  0  0  0  0  0  0  0
   -6.5554    2.7067    4.6332 C   0  0  0  0  0  0  0  0  0  0  0  0
   -6.0209    3.7762    5.3253 C   0  0  0  0  0  0  0  0  0  0  0  0
   -4.7548    4.2042    4.9805 C   0  0  0  0  0  0  0  0  0  0  0  0
   -4.0655    3.5737    3.9806 C   0  0  0  0  0  0  0  0  0  0  0  0
   -7.8111    2.2675    4.9653 O   0  0  0  0  0  0  0  0  0  0  0  0
   -8.7479    1.7381    4.0840 C   0  0  0  0  0  0  0  0  0  0  0  0
  1  2  1  0
  2  3  2  0
  3  4  1  0
  4  5  2  0
  5  6  1  0
  6  7  2  0
  4  8  1  0
  8  9  3  0
  9 10  1  0
 10 11  2  0
 11 12  1  0
 12 13  2  0
 13 14  1  0
 14 15  2  0
 12 16  1  0
 16 17  1  0
  7  2  1  0
 15 10  1  0
M  END
$$$$
