
     RDKit          3D

 17 18  0  0  0  0  0  0  0  0999 V2000
   -2.5585   -0.4808   -2.5324 C   0  0  0  0  0  0  0  0  0  0  0  0
   -1.9739   -0.2285   -1.1751 C   0  0  0  0  0  0  0  0  0  0  0  0
   -2.7046    0.4287   -0.2486 N   0  0  0  0  0  0  0  0  0  0  0  0
   -2.1419    0.6291    0.9804 C   0  0  0  0  0  0  0  0  0  0  0  0
   -0.8710    0.1689    1.2459 C   0  0  0  0  0  0  0  0  0  0  0  0
   -0.1040   -0.5000    0.3280 C   0  0  0  0  0  0  0  0  0  0  0  0
   -0.6988   -0.6939   -0.9213 C   0  0  0  0  0  0  0  0  0  0  0  0
   -2.9748    1.3149    1.9063 C   0  0  0  0  0  0  0  0  0  0  0  0
   -3.7000    1.8856    2.7059 C   0  0  0  0  0  0  0  0  0  0  0  0
   -4.5393    2.5772    3.6408 C   0  0  0  0  0  0  0  0  0  0  0  0
   -5.9051    2.5083    3.6912 C   0  0  0  0  0  0  0  0  0  0  0  0
   -6.6694    3.1644    4.6107 C   0  0  0  0  0  0  0  0  0  0  0  0
   -6.0780    3.9620    5.5711 C   0  0  0  0  0  0  0  0  0  0  0  0
   -4.7020    4.0700    5.5670 C   0  0  0  0  0  0  0  0  0  0  0  0
   -3.9634    3.3979    4.6315 C   0  0  0  0  0  0  0  0  0  0  0  0
   -8.0352    3.0444    4.6028 O   0  0  0  0  0  0  0  0  0  0  0  0
   -8.7538    1.9544    4.1230 C   0  0  0  0  0  0  0  0  0  0  0  0
  1  2  1  0
  2  3  2  0
  3  4  1  0
  4  5  2  0
  5  6  1  0
  6  7  2  0
  4  8  1  0
  8  9  3  0
  9 10  1  0
 10 11  2  0
 11 12  1  0
 12 13  2  0
 13 14  1  0
 14 15  2  0
 12 16  1  0
 16 17  1  0
  7  2  1  0
 15 10  1  0
M  END
$$$$
