
     RDKit          3D

 17 18  0  0  0  0  0  0  0  0999 V2000
   -1.5233   -0.9420   -1.3985 C   0  0  0  0  0  0  0  0  0  0  0  0
   -1.1586   -0.3928   -0.0521 C   0  0  0  0  0  0  0  0  0  0  0  0
   -2.0689    0.3244    0.6418 N   0  0  0  0  0  0  0  0  0  0  0  0
   -1.7032    0.7981    1.8703 C   0  0  0  0  0  0  0  0  0  0  0  0
   -0.4440    0.5424    2.3667 C   0  0  0  0  0  0  0  0  0  0  0  0
    0.5019   -0.1805    1.6878 C   0  0  0  0  0  0  0  0  0  0  0  0
    0.1069   -0.6551    0.4346 C   0  0  0  0  0  0  0  0  0  0  0  0
   -2.7168    1.5311    2.5459 C   0  0  0  0  0  0  0  0  0  0  0  0
   -3.5947    2.1676    3.1075 C   0  0  0  0  0  0  0  0  0  0  0  0
   -4.6084    2.9315    3.7749 C   0  0  0  0  0  0  0  0  0  0  0  0
   -5.9274    2.5841    3.8858 C   0  0  0  0  0  0  0  0  0  0  0  0
   -6.8596    3.3269    4.5486 C   0  0  0  0  0  0  0  0  0  0  0  0
   -6.5028    4.5122    5.1621 C   0  0  0  0  0  0  0  0  0  0  0  0
   -5.1847    4.9132    5.0811 C   0  0  0  0  0  0  0  0  0  0  0  0
   -4.2732    4.1447    4.4093 C   0  0  0  0  0  0  0  0  0  0  0  0
   -8.1647    2.9131    4.6220 O   0  0  0  0  0  0  0  0  0  0  0  0
   -8.7090    1.8156    3.9633 C   0  0  0  0  0  0  0  0  0  0  0  0
  1  2  1  0
  2  3  2  0
  3  4  1  0
  4  5  2  0
  5  6  1  0
  6  7  2  0
  4  8  1  0
  8  9  3  0
  9 10  1  0
 10 11  2  0
 11 12  1  0
 12 13  2  0
 13 14  1  0
 14 15  2  0
 12 16  1  0
 16 17  1  0
  7  2  1  0
 15 10  1  0
M  END
$$$$
