
     RDKit          3D

 17 18  0  0  0  0  0  0  0  0999 V2000
    1.2007    2.0736    2.4345 C   0  0  0  0  0  0  0  0  0  0  0  0
    0.3141    3.1921    2.8933 C   0  0  0  0  0  0  0  0  0  0  0  0
   -0.9794    2.9371    3.1870 N   0  0  0  0  0  0  0  0  0  0  0  0
   -1.7527    3.9800    3.6131 C   0  0  0  0  0  0  0  0  0  0  0  0
   -1.2127    5.2417    3.7324 C   0  0  0  0  0  0  0  0  0  0  0  0
    0.0945    5.5332    3.4417 C   0  0  0  0  0  0  0  0  0  0  0  0
    0.8666    4.4525    3.0082 C   0  0  0  0  0  0  0  0  0  0  0  0
   -3.0975    3.6327    3.9159 C   0  0  0  0  0  0  0  0  0  0  0  0
   -4.2467    3.3289    4.1957 C   0  0  0  0  0  0  0  0  0  0  0  0
   -5.5915    2.9485    4.5174 C   0  0  0  0  0  0  0  0  0  0  0  0
   -6.4689    2.3241    3.6730 C   0  0  0  0  0  0  0  0  0  0  0  0
   -7.7351    1.9572    4.0224 C   0  0  0  0  0  0  0  0  0  0  0  0
   -8.2111    2.2098    5.2944 C   0  0  0  0  0  0  0  0  0  0  0  0
   -7.3692    2.8395    6.1887 C   0  0  0  0  0  0  0  0  0  0  0  0
   -6.1037    3.1940    5.8075 C   0  0  0  0  0  0  0  0  0  0  0  0
   -8.5580    1.3300    3.1228 O   0  0  0  0  0  0  0  0  0  0  0  0
   -9.6867    0.5805    3.4372 C   0  0  0  0  0  0  0  0  0  0  0  0
  1  2  1  0
  2  3  2  0
  3  4  1  0
  4  5  2  0
  5  6  1  0
  6  7  2  0
  4  8  1  0
  8  9  3  0
  9 10  1  0
 10 11  2  0
 11 12  1  0
 12 13  2  0
 13 14  1  0
 14 15  2  0
 12 16  1  0
 16 17  1  0
  7  2  1  0
 15 10  1  0
M  END
$$$$
