
     RDKit          3D

 17 18  0  0  0  0  0  0  0  0999 V2000
   -8.1760    2.2336    4.6434 C   0  0  0  0  0  0  0  0  0  0  0  0
   -6.7841    2.7843    4.5597 C   0  0  0  0  0  0  0  0  0  0  0  0
   -5.9004    2.2295    3.7019 N   0  0  0  0  0  0  0  0  0  0  0  0
   -4.6452    2.7667    3.6457 C   0  0  0  0  0  0  0  0  0  0  0  0
   -4.3117    3.8377    4.4453 C   0  0  0  0  0  0  0  0  0  0  0  0
   -5.1842    4.4222    5.3258 C   0  0  0  0  0  0  0  0  0  0  0  0
   -6.4614    3.8574    5.3667 C   0  0  0  0  0  0  0  0  0  0  0  0
   -3.7761    2.1400    2.7115 C   0  0  0  0  0  0  0  0  0  0  0  0
   -3.0343    1.5826    1.9176 C   0  0  0  0  0  0  0  0  0  0  0  0
   -2.1752    0.9064    0.9896 C   0  0  0  0  0  0  0  0  0  0  0  0
   -2.4633    0.6471   -0.3229 C   0  0  0  0  0  0  0  0  0  0  0  0
   -1.6102    0.0199   -1.1825 C   0  0  0  0  0  0  0  0  0  0  0  0
   -0.3670   -0.4012   -0.7518 C   0  0  0  0  0  0  0  0  0  0  0  0
   -0.0230   -0.1673    0.5642 C   0  0  0  0  0  0  0  0  0  0  0  0
   -0.9012    0.4656    1.4014 C   0  0  0  0  0  0  0  0  0  0  0  0
   -1.9662   -0.2025   -2.4878 O   0  0  0  0  0  0  0  0  0  0  0  0
   -1.0912   -0.4636   -3.5370 C   0  0  0  0  0  0  0  0  0  0  0  0
  1  2  1  0
  2  3  2  0
  3  4  1  0
  4  5  2  0
  5  6  1  0
  6  7  2  0
  4  8  1  0
  8  9  3  0
  9 10  1  0
 10 11  2  0
 11 12  1  0
 12 13  2  0
 13 14  1  0
 14 15  2  0
 12 16  1  0
 16 17  1  0
  7  2  1  0
 15 10  1  0
M  END
$$$$
