
     RDKit          3D

 17 18  0  0  0  0  0  0  0  0999 V2000
   -0.9067   -0.8949   -1.1056 C   0  0  0  0  0  0  0  0  0  0  0  0
   -0.6643   -0.2124    0.2071 C   0  0  0  0  0  0  0  0  0  0  0  0
   -1.7004    0.3534    0.8633 N   0  0  0  0  0  0  0  0  0  0  0  0
   -1.4417    0.9556    2.0623 C   0  0  0  0  0  0  0  0  0  0  0  0
   -0.1603    0.9747    2.5677 C   0  0  0  0  0  0  0  0  0  0  0  0
    0.9118    0.4110    1.9267 C   0  0  0  0  0  0  0  0  0  0  0  0
    0.6245   -0.1991    0.7031 C   0  0  0  0  0  0  0  0  0  0  0  0
   -2.5821    1.5161    2.6997 C   0  0  0  0  0  0  0  0  0  0  0  0
   -3.5715    1.9786    3.2459 C   0  0  0  0  0  0  0  0  0  0  0  0
   -4.7472    2.5159    3.8669 C   0  0  0  0  0  0  0  0  0  0  0  0
   -6.0384    2.2294    3.5155 C   0  0  0  0  0  0  0  0  0  0  0  0
   -7.1333    2.7439    4.1452 C   0  0  0  0  0  0  0  0  0  0  0  0
   -6.9850    3.6138    5.2081 C   0  0  0  0  0  0  0  0  0  0  0  0
   -5.7041    3.9399    5.6053 C   0  0  0  0  0  0  0  0  0  0  0  0
   -4.6260    3.4058    4.9533 C   0  0  0  0  0  0  0  0  0  0  0  0
   -8.3992    2.4077    3.7398 O   0  0  0  0  0  0  0  0  0  0  0  0
   -9.5167    3.2342    3.7908 C   0  0  0  0  0  0  0  0  0  0  0  0
  1  2  1  0
  2  3  2  0
  3  4  1  0
  4  5  2  0
  5  6  1  0
  6  7  2  0
  4  8  1  0
  8  9  3  0
  9 10  1  0
 10 11  2  0
 11 12  1  0
 12 13  2  0
 13 14  1  0
 14 15  2  0
 12 16  1  0
 16 17  1  0
  7  2  1  0
 15 10  1  0
M  END
$$$$
