
     RDKit          3D

 17 18  0  0  0  0  0  0  0  0999 V2000
   -7.0700    6.5294    2.0796 C   0  0  0  0  0  0  0  0  0  0  0  0
   -6.2250    5.6739    2.9749 C   0  0  0  0  0  0  0  0  0  0  0  0
   -5.4427    4.7153    2.4333 N   0  0  0  0  0  0  0  0  0  0  0  0
   -4.6781    3.9639    3.2808 C   0  0  0  0  0  0  0  0  0  0  0  0
   -4.7180    4.1918    4.6387 C   0  0  0  0  0  0  0  0  0  0  0  0
   -5.5011    5.1551    5.2192 C   0  0  0  0  0  0  0  0  0  0  0  0
   -6.2741    5.9112    4.3345 C   0  0  0  0  0  0  0  0  0  0  0  0
   -3.8717    2.9855    2.6377 C   0  0  0  0  0  0  0  0  0  0  0  0
   -3.1679    2.1606    2.0760 C   0  0  0  0  0  0  0  0  0  0  0  0
   -2.3617    1.1834    1.4042 C   0  0  0  0  0  0  0  0  0  0  0  0
   -2.5390    0.7483    0.1188 C   0  0  0  0  0  0  0  0  0  0  0  0
   -1.7367   -0.1681   -0.4948 C   0  0  0  0  0  0  0  0  0  0  0  0
   -0.6662   -0.7235    0.1791 C   0  0  0  0  0  0  0  0  0  0  0  0
   -0.4403   -0.3226    1.4803 C   0  0  0  0  0  0  0  0  0  0  0  0
   -1.2631    0.5999    2.0672 C   0  0  0  0  0  0  0  0  0  0  0  0
   -1.9733   -0.5539   -1.7890 O   0  0  0  0  0  0  0  0  0  0  0  0
   -2.6833    0.1736   -2.7384 C   0  0  0  0  0  0  0  0  0  0  0  0
  1  2  1  0
  2  3  2  0
  3  4  1  0
  4  5  2  0
  5  6  1  0
  6  7  2  0
  4  8  1  0
  8  9  3  0
  9 10  1  0
 10 11  2  0
 11 12  1  0
 12 13  2  0
 13 14  1  0
 14 15  2  0
 12 16  1  0
 16 17  1  0
  7  2  1  0
 15 10  1  0
M  END
$$$$
