
     RDKit          3D

 17 18  0  0  0  0  0  0  0  0999 V2000
   -3.3837    0.0406   -3.1407 C   0  0  0  0  0  0  0  0  0  0  0  0
   -3.7526    1.4087   -2.6511 C   0  0  0  0  0  0  0  0  0  0  0  0
   -4.1684    1.5684   -1.3760 N   0  0  0  0  0  0  0  0  0  0  0  0
   -4.4844    2.8322   -0.9634 C   0  0  0  0  0  0  0  0  0  0  0  0
   -4.3762    3.8944   -1.8338 C   0  0  0  0  0  0  0  0  0  0  0  0
   -3.9586    3.7656   -3.1327 C   0  0  0  0  0  0  0  0  0  0  0  0
   -3.6408    2.4654   -3.5331 C   0  0  0  0  0  0  0  0  0  0  0  0
   -4.9003    2.9237    0.3930 C   0  0  0  0  0  0  0  0  0  0  0  0
   -5.2778    3.0031    1.5516 C   0  0  0  0  0  0  0  0  0  0  0  0
   -5.7036    3.0796    2.9188 C   0  0  0  0  0  0  0  0  0  0  0  0
   -6.8253    2.4942    3.4403 C   0  0  0  0  0  0  0  0  0  0  0  0
   -7.1866    2.5708    4.7532 C   0  0  0  0  0  0  0  0  0  0  0  0
   -6.4078    3.2717    5.6536 C   0  0  0  0  0  0  0  0  0  0  0  0
   -5.2643    3.8846    5.1826 C   0  0  0  0  0  0  0  0  0  0  0  0
   -4.9288    3.7880    3.8595 C   0  0  0  0  0  0  0  0  0  0  0  0
   -8.3244    1.9540    5.2056 O   0  0  0  0  0  0  0  0  0  0  0  0
   -8.8687    2.0827    6.4791 C   0  0  0  0  0  0  0  0  0  0  0  0
  1  2  1  0
  2  3  2  0
  3  4  1  0
  4  5  2  0
  5  6  1  0
  6  7  2  0
  4  8  1  0
  8  9  3  0
  9 10  1  0
 10 11  2  0
 11 12  1  0
 12 13  2  0
 13 14  1  0
 14 15  2  0
 12 16  1  0
 16 17  1  0
  7  2  1  0
 15 10  1  0
M  END
$$$$
