
     RDKit          3D

 17 18  0  0  0  0  0  0  0  0999 V2000
   -4.6403    6.7283   10.6841 C   0  0  0  0  0  0  0  0  0  0  0  0
   -3.8317    6.7442    9.4218 C   0  0  0  0  0  0  0  0  0  0  0  0
   -4.2832    6.0815    8.3350 N   0  0  0  0  0  0  0  0  0  0  0  0
   -3.5240    6.1292    7.1998 C   0  0  0  0  0  0  0  0  0  0  0  0
   -2.3409    6.8346    7.1846 C   0  0  0  0  0  0  0  0  0  0  0  0
   -1.8551    7.5161    8.2698 C   0  0  0  0  0  0  0  0  0  0  0  0
   -2.6471    7.4540    9.4191 C   0  0  0  0  0  0  0  0  0  0  0  0
   -4.0694    5.4205    6.0947 C   0  0  0  0  0  0  0  0  0  0  0  0
   -4.5184    4.8110    5.1365 C   0  0  0  0  0  0  0  0  0  0  0  0
   -5.0646    4.0870    4.0257 C   0  0  0  0  0  0  0  0  0  0  0  0
   -5.9642    4.5760    3.1177 C   0  0  0  0  0  0  0  0  0  0  0  0
   -6.4452    3.8631    2.0592 C   0  0  0  0  0  0  0  0  0  0  0  0
   -6.0322    2.5622    1.8460 C   0  0  0  0  0  0  0  0  0  0  0  0
   -5.1260    2.0160    2.7322 C   0  0  0  0  0  0  0  0  0  0  0  0
   -4.6615    2.7581    3.7839 C   0  0  0  0  0  0  0  0  0  0  0  0
   -7.3432    4.4214    1.1864 O   0  0  0  0  0  0  0  0  0  0  0  0
   -7.4430    4.1370   -0.1715 C   0  0  0  0  0  0  0  0  0  0  0  0
  1  2  1  0
  2  3  2  0
  3  4  1  0
  4  5  2  0
  5  6  1  0
  6  7  2  0
  4  8  1  0
  8  9  3  0
  9 10  1  0
 10 11  2  0
 11 12  1  0
 12 13  2  0
 13 14  1  0
 14 15  2  0
 12 16  1  0
 16 17  1  0
  7  2  1  0
 15 10  1  0
M  END
$$$$
