
     RDKit          3D

 17 18  0  0  0  0  0  0  0  0999 V2000
   -7.8768    2.4222    8.6770 C   0  0  0  0  0  0  0  0  0  0  0  0
   -7.9016    2.1153    7.2098 C   0  0  0  0  0  0  0  0  0  0  0  0
   -7.0494    2.7578    6.3820 N   0  0  0  0  0  0  0  0  0  0  0  0
   -7.0939    2.4423    5.0531 C   0  0  0  0  0  0  0  0  0  0  0  0
   -7.9853    1.4982    4.5929 C   0  0  0  0  0  0  0  0  0  0  0  0
   -8.8629    0.8298    5.4061 C   0  0  0  0  0  0  0  0  0  0  0  0
   -8.8000    1.1677    6.7603 C   0  0  0  0  0  0  0  0  0  0  0  0
   -6.1596    3.1482    4.2471 C   0  0  0  0  0  0  0  0  0  0  0  0
   -5.3690    3.7721    3.5565 C   0  0  0  0  0  0  0  0  0  0  0  0
   -4.4528    4.5261    2.7512 C   0  0  0  0  0  0  0  0  0  0  0  0
   -4.5399    4.7056    1.3973 C   0  0  0  0  0  0  0  0  0  0  0  0
   -3.6601    5.4494    0.6674 C   0  0  0  0  0  0  0  0  0  0  0  0
   -2.5968    6.0801    1.2841 C   0  0  0  0  0  0  0  0  0  0  0  0
   -2.4583    5.9323    2.6493 C   0  0  0  0  0  0  0  0  0  0  0  0
   -3.3589    5.1800    3.3534 C   0  0  0  0  0  0  0  0  0  0  0  0
   -3.8133    5.5884   -0.6880 O   0  0  0  0  0  0  0  0  0  0  0  0
   -2.8176    5.9577   -1.5862 C   0  0  0  0  0  0  0  0  0  0  0  0
  1  2  1  0
  2  3  2  0
  3  4  1  0
  4  5  2  0
  5  6  1  0
  6  7  2  0
  4  8  1  0
  8  9  3  0
  9 10  1  0
 10 11  2  0
 11 12  1  0
 12 13  2  0
 13 14  1  0
 14 15  2  0
 12 16  1  0
 16 17  1  0
  7  2  1  0
 15 10  1  0
M  END
$$$$
