
     RDKit          3D

 17 18  0  0  0  0  0  0  0  0999 V2000
    0.3932   -0.7195   -0.7905 C   0  0  0  0  0  0  0  0  0  0  0  0
   -0.9633   -0.1414   -1.0614 C   0  0  0  0  0  0  0  0  0  0  0  0
   -1.6674    0.4053   -0.0466 N   0  0  0  0  0  0  0  0  0  0  0  0
   -2.8946    0.9325   -0.3353 C   0  0  0  0  0  0  0  0  0  0  0  0
   -3.3798    0.8977   -1.6241 C   0  0  0  0  0  0  0  0  0  0  0  0
   -2.6911    0.3500   -2.6747 C   0  0  0  0  0  0  0  0  0  0  0  0
   -1.4392   -0.1828   -2.3571 C   0  0  0  0  0  0  0  0  0  0  0  0
   -3.5696    1.5014    0.7790 C   0  0  0  0  0  0  0  0  0  0  0  0
   -4.1681    1.9864    1.7265 C   0  0  0  0  0  0  0  0  0  0  0  0
   -4.8653    2.5790    2.8307 C   0  0  0  0  0  0  0  0  0  0  0  0
   -6.2020    2.4495    3.0939 C   0  0  0  0  0  0  0  0  0  0  0  0
   -6.8267    3.0108    4.1685 C   0  0  0  0  0  0  0  0  0  0  0  0
   -6.1120    3.7676    5.0768 C   0  0  0  0  0  0  0  0  0  0  0  0
   -4.7591    3.9335    4.8604 C   0  0  0  0  0  0  0  0  0  0  0  0
   -4.1618    3.3562    3.7730 C   0  0  0  0  0  0  0  0  0  0  0  0
   -8.1713    2.8342    4.3704 O   0  0  0  0  0  0  0  0  0  0  0  0
   -8.7714    2.4486    5.5645 C   0  0  0  0  0  0  0  0  0  0  0  0
  1  2  1  0
  2  3  2  0
  3  4  1  0
  4  5  2  0
  5  6  1  0
  6  7  2  0
  4  8  1  0
  8  9  3  0
  9 10  1  0
 10 11  2  0
 11 12  1  0
 12 13  2  0
 13 14  1  0
 14 15  2  0
 12 16  1  0
 16 17  1  0
  7  2  1  0
 15 10  1  0
M  END
$$$$
