
     RDKit          3D

 17 18  0  0  0  0  0  0  0  0999 V2000
   -2.3478   -0.3442   -2.7778 C   0  0  0  0  0  0  0  0  0  0  0  0
   -1.8724   -0.1754   -1.3661 C   0  0  0  0  0  0  0  0  0  0  0  0
   -2.6677    0.4429   -0.4664 N   0  0  0  0  0  0  0  0  0  0  0  0
   -2.2044    0.5671    0.8131 C   0  0  0  0  0  0  0  0  0  0  0  0
   -0.9649    0.0720    1.1541 C   0  0  0  0  0  0  0  0  0  0  0  0
   -0.1343   -0.5591    0.2653 C   0  0  0  0  0  0  0  0  0  0  0  0
   -0.6279   -0.6752   -1.0365 C   0  0  0  0  0  0  0  0  0  0  0  0
   -3.1011    1.2157    1.7054 C   0  0  0  0  0  0  0  0  0  0  0  0
   -3.8574    1.7700    2.4877 C   0  0  0  0  0  0  0  0  0  0  0  0
   -4.7286    2.4391    3.4096 C   0  0  0  0  0  0  0  0  0  0  0  0
   -6.0962    2.3945    3.3925 C   0  0  0  0  0  0  0  0  0  0  0  0
   -6.8924    3.0273    4.3011 C   0  0  0  0  0  0  0  0  0  0  0  0
   -6.3341    3.7740    5.3206 C   0  0  0  0  0  0  0  0  0  0  0  0
   -4.9579    3.8557    5.3860 C   0  0  0  0  0  0  0  0  0  0  0  0
   -4.1869    3.2079    4.4595 C   0  0  0  0  0  0  0  0  0  0  0  0
   -8.2581    2.9340    4.2237 O   0  0  0  0  0  0  0  0  0  0  0  0
   -9.1026    2.4926    5.2368 C   0  0  0  0  0  0  0  0  0  0  0  0
  1  2  1  0
  2  3  2  0
  3  4  1  0
  4  5  2  0
  5  6  1  0
  6  7  2  0
  4  8  1  0
  8  9  3  0
  9 10  1  0
 10 11  2  0
 11 12  1  0
 12 13  2  0
 13 14  1  0
 14 15  2  0
 12 16  1  0
 16 17  1  0
  7  2  1  0
 15 10  1  0
M  END
$$$$
