
     RDKit          3D

 17 18  0  0  0  0  0  0  0  0999 V2000
   -5.2575    2.7945    5.0039 C   0  0  0  0  0  0  0  0  0  0  0  0
   -4.0553    2.2061    4.3287 C   0  0  0  0  0  0  0  0  0  0  0  0
   -4.0839    1.9828    2.9969 N   0  0  0  0  0  0  0  0  0  0  0  0
   -2.9647    1.4564    2.4158 C   0  0  0  0  0  0  0  0  0  0  0  0
   -1.8548    1.1698    3.1798 C   0  0  0  0  0  0  0  0  0  0  0  0
   -1.7943    1.3835    4.5321 C   0  0  0  0  0  0  0  0  0  0  0  0
   -2.9491    1.9222    5.1051 C   0  0  0  0  0  0  0  0  0  0  0  0
   -3.0645    1.2624    1.0110 C   0  0  0  0  0  0  0  0  0  0  0  0
   -3.1487    1.0746   -0.1926 C   0  0  0  0  0  0  0  0  0  0  0  0
   -3.2225    0.8519   -1.6074 C   0  0  0  0  0  0  0  0  0  0  0  0
   -4.3413    0.9978   -2.3819 C   0  0  0  0  0  0  0  0  0  0  0  0
   -4.3677    0.7981   -3.7308 C   0  0  0  0  0  0  0  0  0  0  0  0
   -3.2220    0.4228   -4.4052 C   0  0  0  0  0  0  0  0  0  0  0  0
   -2.0631    0.2590   -3.6737 C   0  0  0  0  0  0  0  0  0  0  0  0
   -2.0693    0.4682   -2.3214 C   0  0  0  0  0  0  0  0  0  0  0  0
   -5.5268    0.9675   -4.4433 O   0  0  0  0  0  0  0  0  0  0  0  0
   -5.7703    0.4907   -5.7270 C   0  0  0  0  0  0  0  0  0  0  0  0
  1  2  1  0
  2  3  2  0
  3  4  1  0
  4  5  2  0
  5  6  1  0
  6  7  2  0
  4  8  1  0
  8  9  3  0
  9 10  1  0
 10 11  2  0
 11 12  1  0
 12 13  2  0
 13 14  1  0
 14 15  2  0
 12 16  1  0
 16 17  1  0
  7  2  1  0
 15 10  1  0
M  END
$$$$
