
     RDKit          3D

 17 18  0  0  0  0  0  0  0  0999 V2000
   -1.5138   -0.3769   -2.4355 C   0  0  0  0  0  0  0  0  0  0  0  0
   -1.1553   -0.0526   -1.0163 C   0  0  0  0  0  0  0  0  0  0  0  0
   -2.0880    0.4871   -0.2020 N   0  0  0  0  0  0  0  0  0  0  0  0
   -1.7266    0.7577    1.0878 C   0  0  0  0  0  0  0  0  0  0  0  0
   -0.4492    0.4823    1.5235 C   0  0  0  0  0  0  0  0  0  0  0  0
    0.5196   -0.0638    0.7227 C   0  0  0  0  0  0  0  0  0  0  0  0
    0.1285   -0.3325   -0.5914 C   0  0  0  0  0  0  0  0  0  0  0  0
   -2.7635    1.3111    1.8876 C   0  0  0  0  0  0  0  0  0  0  0  0
   -3.6437    1.8051    2.5749 C   0  0  0  0  0  0  0  0  0  0  0  0
   -4.6874    2.3622    3.3853 C   0  0  0  0  0  0  0  0  0  0  0  0
   -6.0245    2.1005    3.2570 C   0  0  0  0  0  0  0  0  0  0  0  0
   -6.9877    2.6333    4.0623 C   0  0  0  0  0  0  0  0  0  0  0  0
   -6.6459    3.4975    5.0845 C   0  0  0  0  0  0  0  0  0  0  0  0
   -5.3105    3.7989    5.2597 C   0  0  0  0  0  0  0  0  0  0  0  0
   -4.3681    3.2468    4.4353 C   0  0  0  0  0  0  0  0  0  0  0  0
   -8.3099    2.3215    3.8766 O   0  0  0  0  0  0  0  0  0  0  0  0
   -9.1295    1.6715    4.7934 C   0  0  0  0  0  0  0  0  0  0  0  0
  1  2  1  0
  2  3  2  0
  3  4  1  0
  4  5  2  0
  5  6  1  0
  6  7  2  0
  4  8  1  0
  8  9  3  0
  9 10  1  0
 10 11  2  0
 11 12  1  0
 12 13  2  0
 13 14  1  0
 14 15  2  0
 12 16  1  0
 16 17  1  0
  7  2  1  0
 15 10  1  0
M  END
$$$$
