
     RDKit          3D

 17 18  0  0  0  0  0  0  0  0999 V2000
   -2.2153   -0.3563   -2.7519 C   0  0  0  0  0  0  0  0  0  0  0  0
   -1.6825   -0.1175   -1.3711 C   0  0  0  0  0  0  0  0  0  0  0  0
   -2.4581    0.5068   -0.4583 N   0  0  0  0  0  0  0  0  0  0  0  0
   -1.9417    0.6956    0.7927 C   0  0  0  0  0  0  0  0  0  0  0  0
   -0.6709    0.2570    1.0931 C   0  0  0  0  0  0  0  0  0  0  0  0
    0.1408   -0.3784    0.1901 C   0  0  0  0  0  0  0  0  0  0  0  0
   -0.4070   -0.5610   -1.0822 C   0  0  0  0  0  0  0  0  0  0  0  0
   -2.8199    1.3463    1.7018 C   0  0  0  0  0  0  0  0  0  0  0  0
   -3.5906    1.8941    2.4746 C   0  0  0  0  0  0  0  0  0  0  0  0
   -4.4996    2.5152    3.3935 C   0  0  0  0  0  0  0  0  0  0  0  0
   -5.8653    2.4572    3.3285 C   0  0  0  0  0  0  0  0  0  0  0  0
   -6.6986    3.0434    4.2353 C   0  0  0  0  0  0  0  0  0  0  0  0
   -6.1832    3.7525    5.3030 C   0  0  0  0  0  0  0  0  0  0  0  0
   -4.8110    3.8455    5.4181 C   0  0  0  0  0  0  0  0  0  0  0  0
   -4.0021    3.2450    4.4920 C   0  0  0  0  0  0  0  0  0  0  0  0
   -8.0598    2.9394    4.1080 O   0  0  0  0  0  0  0  0  0  0  0  0
   -8.9272    2.4034    5.0540 C   0  0  0  0  0  0  0  0  0  0  0  0
  1  2  1  0
  2  3  2  0
  3  4  1  0
  4  5  2  0
  5  6  1  0
  6  7  2  0
  4  8  1  0
  8  9  3  0
  9 10  1  0
 10 11  2  0
 11 12  1  0
 12 13  2  0
 13 14  1  0
 14 15  2  0
 12 16  1  0
 16 17  1  0
  7  2  1  0
 15 10  1  0
M  END
$$$$
