
     RDKit          3D

 17 18  0  0  0  0  0  0  0  0999 V2000
   -2.8040    7.8509   -0.0878 C   0  0  0  0  0  0  0  0  0  0  0  0
   -2.6201    7.3466    1.3120 C   0  0  0  0  0  0  0  0  0  0  0  0
   -3.5259    6.4917    1.8347 N   0  0  0  0  0  0  0  0  0  0  0  0
   -3.3175    6.0450    3.1092 C   0  0  0  0  0  0  0  0  0  0  0  0
   -2.2150    6.4643    3.8206 C   0  0  0  0  0  0  0  0  0  0  0  0
   -1.2789    7.3309    3.3196 C   0  0  0  0  0  0  0  0  0  0  0  0
   -1.5115    7.7747    2.0154 C   0  0  0  0  0  0  0  0  0  0  0  0
   -4.3038    5.1388    3.5857 C   0  0  0  0  0  0  0  0  0  0  0  0
   -5.1482    4.3681    4.0148 C   0  0  0  0  0  0  0  0  0  0  0  0
   -6.1393    3.4751    4.5408 C   0  0  0  0  0  0  0  0  0  0  0  0
   -6.9986    2.7095    3.8003 C   0  0  0  0  0  0  0  0  0  0  0  0
   -7.9147    1.8535    4.3370 C   0  0  0  0  0  0  0  0  0  0  0  0
   -8.0240    1.7145    5.7071 C   0  0  0  0  0  0  0  0  0  0  0  0
   -7.1828    2.4641    6.5042 C   0  0  0  0  0  0  0  0  0  0  0  0
   -6.2735    3.3134    5.9347 C   0  0  0  0  0  0  0  0  0  0  0  0
   -8.7413    1.1139    3.5310 O   0  0  0  0  0  0  0  0  0  0  0  0
   -9.2520   -0.1458    3.8259 C   0  0  0  0  0  0  0  0  0  0  0  0
  1  2  1  0
  2  3  2  0
  3  4  1  0
  4  5  2  0
  5  6  1  0
  6  7  2  0
  4  8  1  0
  8  9  3  0
  9 10  1  0
 10 11  2  0
 11 12  1  0
 12 13  2  0
 13 14  1  0
 14 15  2  0
 12 16  1  0
 16 17  1  0
  7  2  1  0
 15 10  1  0
M  END
$$$$
