
     RDKit          3D

 17 18  0  0  0  0  0  0  0  0999 V2000
   -0.5662   -1.0201   -1.3192 C   0  0  0  0  0  0  0  0  0  0  0  0
   -1.6806   -0.0186   -1.3722 C   0  0  0  0  0  0  0  0  0  0  0  0
   -2.2068    0.4516   -0.2206 N   0  0  0  0  0  0  0  0  0  0  0  0
   -3.2129    1.3720   -0.3099 C   0  0  0  0  0  0  0  0  0  0  0  0
   -3.6615    1.7933   -1.5423 C   0  0  0  0  0  0  0  0  0  0  0  0
   -3.1497    1.3353   -2.7282 C   0  0  0  0  0  0  0  0  0  0  0  0
   -2.1223    0.3954   -2.6134 C   0  0  0  0  0  0  0  0  0  0  0  0
   -3.7066    1.8303    0.9421 C   0  0  0  0  0  0  0  0  0  0  0  0
   -4.1489    2.2137    2.0137 C   0  0  0  0  0  0  0  0  0  0  0  0
   -4.6891    2.6499    3.2685 C   0  0  0  0  0  0  0  0  0  0  0  0
   -5.9450    2.3742    3.7369 C   0  0  0  0  0  0  0  0  0  0  0  0
   -6.4166    2.7886    4.9476 C   0  0  0  0  0  0  0  0  0  0  0  0
   -5.6181    3.5370    5.7908 C   0  0  0  0  0  0  0  0  0  0  0  0
   -4.3410    3.8468    5.3690 C   0  0  0  0  0  0  0  0  0  0  0  0
   -3.8972    3.4149    4.1487 C   0  0  0  0  0  0  0  0  0  0  0  0
   -7.6871    2.4701    5.3529 O   0  0  0  0  0  0  0  0  0  0  0  0
   -8.5727    1.6379    4.6764 C   0  0  0  0  0  0  0  0  0  0  0  0
  1  2  1  0
  2  3  2  0
  3  4  1  0
  4  5  2  0
  5  6  1  0
  6  7  2  0
  4  8  1  0
  8  9  3  0
  9 10  1  0
 10 11  2  0
 11 12  1  0
 12 13  2  0
 13 14  1  0
 14 15  2  0
 12 16  1  0
 16 17  1  0
  7  2  1  0
 15 10  1  0
M  END
$$$$
