
     RDKit          3D

 27 30  0  0  0  0  0  0  0  0999 V2000
    2.5344    0.2755    6.7127 C   0  0  0  0  0  0  0  0  0  0  0  0
    1.9357   -0.4848    7.8603 C   0  0  0  0  0  0  0  0  0  0  0  0
    2.7030   -0.2742    9.1492 C   0  0  0  0  0  0  0  0  0  0  0  0
    0.4653   -0.2855    8.0484 C   0  0  0  0  0  0  0  0  0  0  0  0
    0.0542   -1.0037    9.2761 C   0  0  0  0  0  0  0  0  0  0  0  0
   -0.1297   -2.3682    9.3437 C   0  0  0  0  0  0  0  0  0  0  0  0
   -0.5077   -2.9694   10.5343 C   0  0  0  0  0  0  0  0  0  0  0  0
   -0.7086   -2.2265   11.6735 C   0  0  0  0  0  0  0  0  0  0  0  0
   -0.5292   -0.8648   11.6218 C   0  0  0  0  0  0  0  0  0  0  0  0
   -0.1541   -0.2929   10.4287 C   0  0  0  0  0  0  0  0  0  0  0  0
   -1.1902   -2.9988   13.1874 Cl  0  0  0  0  0  0  0  0  0  0  0  0
   -0.3383   -0.6565    6.8571 C   0  0  0  0  0  0  0  0  0  0  0  0
   -0.0641   -1.7091    6.2314 O   0  0  0  0  0  0  0  0  0  0  0  0
   -1.4072    0.1443    6.4053 N   0  0  0  0  0  0  0  0  0  0  0  0
   -2.0624   -0.1582    5.1797 C   0  0  0  0  0  0  0  0  0  0  0  0
   -3.4292    0.4420    5.0357 C   0  0  0  0  0  0  0  0  0  0  0  0
   -3.5550    1.8241    5.6072 C   0  0  0  0  0  0  0  0  0  0  0  0
   -2.2756    2.3387    6.2166 C   0  0  0  0  0  0  0  0  0  0  0  0
   -1.8211    1.2720    7.2082 C   0  0  0  0  0  0  0  0  0  0  0  0
   -4.5445    1.8457    6.6198 O   0  0  0  0  0  0  0  0  0  0  0  0
   -5.4013    2.9208    6.4596 C   0  0  0  0  0  0  0  0  0  0  0  0
   -6.3949    3.4528    7.2700 C   0  0  0  0  0  0  0  0  0  0  0  0
   -7.1131    4.5564    6.8537 C   0  0  0  0  0  0  0  0  0  0  0  0
   -6.8357    5.1362    5.6125 C   0  0  0  0  0  0  0  0  0  0  0  0
   -5.8422    4.5810    4.8344 C   0  0  0  0  0  0  0  0  0  0  0  0
   -5.1160    3.4799    5.2348 C   0  0  0  0  0  0  0  0  0  0  0  0
   -4.0915    2.7416    4.6637 O   0  0  0  0  0  0  0  0  0  0  0  0
  1  2  1  0
  2  3  1  0
  2  4  1  0
  4  5  1  0
  5  6  2  0
  6  7  1  0
  7  8  2  0
  8  9  1  0
  9 10  2  0
  8 11  1  0
  4 12  1  0
 12 13  2  0
 12 14  1  0
 14 15  1  0
 15 16  1  0
 16 17  1  0
 17 18  1  0
 18 19  1  0
 17 20  1  0
 20 21  1  0
 21 22  2  0
 22 23  1  0
 23 24  2  0
 24 25  1  0
 25 26  2  0
 26 27  1  0
 10  5  1  0
 19 14  1  0
 27 17  1  0
 26 21  1  0
M  END
$$$$
