
     RDKit          3D

 27 30  0  0  0  0  0  0  0  0999 V2000
  -13.3776    4.3626   16.5159 C   0  0  0  0  0  0  0  0  0  0  0  0
  -13.0105    2.9127   16.6448 C   0  0  0  0  0  0  0  0  0  0  0  0
  -13.9650    2.1583   17.5471 C   0  0  0  0  0  0  0  0  0  0  0  0
  -12.7909    2.2015   15.3473 C   0  0  0  0  0  0  0  0  0  0  0  0
  -11.5543    1.3958   15.4648 C   0  0  0  0  0  0  0  0  0  0  0  0
  -11.3536    0.1960   14.8163 C   0  0  0  0  0  0  0  0  0  0  0  0
  -10.1627   -0.4968   14.9703 C   0  0  0  0  0  0  0  0  0  0  0  0
   -9.1551   -0.0099   15.7689 C   0  0  0  0  0  0  0  0  0  0  0  0
   -9.3404    1.1851   16.4221 C   0  0  0  0  0  0  0  0  0  0  0  0
  -10.5307    1.8527   16.2526 C   0  0  0  0  0  0  0  0  0  0  0  0
   -7.6400   -0.8978   15.9608 Cl  0  0  0  0  0  0  0  0  0  0  0  0
  -12.7899    3.1059   14.1707 C   0  0  0  0  0  0  0  0  0  0  0  0
  -13.5539    4.1014   14.1571 O   0  0  0  0  0  0  0  0  0  0  0  0
  -11.9508    2.8776   13.0610 N   0  0  0  0  0  0  0  0  0  0  0  0
  -10.7692    2.0987   13.2029 C   0  0  0  0  0  0  0  0  0  0  0  0
  -10.2261    1.5453   11.9192 C   0  0  0  0  0  0  0  0  0  0  0  0
  -10.3476    2.4780   10.7497 C   0  0  0  0  0  0  0  0  0  0  0  0
  -10.9952    3.7941   11.0983 C   0  0  0  0  0  0  0  0  0  0  0  0
  -12.3134    3.4478   11.7838 C   0  0  0  0  0  0  0  0  0  0  0  0
  -11.1253    1.8813    9.7278 O   0  0  0  0  0  0  0  0  0  0  0  0
  -10.5189    2.0205    8.4915 C   0  0  0  0  0  0  0  0  0  0  0  0
  -10.9594    1.7631    7.2004 C   0  0  0  0  0  0  0  0  0  0  0  0
  -10.1273    1.9983    6.1235 C   0  0  0  0  0  0  0  0  0  0  0  0
   -8.8393    2.4968    6.3386 C   0  0  0  0  0  0  0  0  0  0  0  0
   -8.4361    2.7405    7.6342 C   0  0  0  0  0  0  0  0  0  0  0  0
   -9.2537    2.5114    8.7200 C   0  0  0  0  0  0  0  0  0  0  0  0
   -9.1032    2.6656   10.0891 O   0  0  0  0  0  0  0  0  0  0  0  0
  1  2  1  0
  2  3  1  0
  2  4  1  0
  4  5  1  0
  5  6  2  0
  6  7  1  0
  7  8  2  0
  8  9  1  0
  9 10  2  0
  8 11  1  0
  4 12  1  0
 12 13  2  0
 12 14  1  0
 14 15  1  0
 15 16  1  0
 16 17  1  0
 17 18  1  0
 18 19  1  0
 17 20  1  0
 20 21  1  0
 21 22  2  0
 22 23  1  0
 23 24  2  0
 24 25  1  0
 25 26  2  0
 26 27  1  0
 10  5  1  0
 19 14  1  0
 27 17  1  0
 26 21  1  0
M  END
$$$$
