
     RDKit          3D

 27 30  0  0  0  0  0  0  0  0999 V2000
   -0.9471    3.6866    8.8275 C   0  0  0  0  0  0  0  0  0  0  0  0
   -0.3662    2.4924    8.1275 C   0  0  0  0  0  0  0  0  0  0  0  0
    0.7709    1.8675    8.9091 C   0  0  0  0  0  0  0  0  0  0  0  0
   -1.3676    1.4716    7.6886 C   0  0  0  0  0  0  0  0  0  0  0  0
   -1.8526    0.7532    8.8889 C   0  0  0  0  0  0  0  0  0  0  0  0
   -2.8900    1.1944    9.6824 C   0  0  0  0  0  0  0  0  0  0  0  0
   -3.2926    0.4601   10.7872 C   0  0  0  0  0  0  0  0  0  0  0  0
   -2.6726   -0.7208   11.1205 C   0  0  0  0  0  0  0  0  0  0  0  0
   -1.6365   -1.1736   10.3390 C   0  0  0  0  0  0  0  0  0  0  0  0
   -1.2564   -0.4267    9.2486 C   0  0  0  0  0  0  0  0  0  0  0  0
   -3.1905   -1.6515   12.5297 Cl  0  0  0  0  0  0  0  0  0  0  0  0
   -0.8607    0.5643    6.6292 C   0  0  0  0  0  0  0  0  0  0  0  0
    0.1200   -0.1801    6.8717 O   0  0  0  0  0  0  0  0  0  0  0  0
   -1.4525    0.5143    5.3505 N   0  0  0  0  0  0  0  0  0  0  0  0
   -2.5980    1.3053    5.0584 C   0  0  0  0  0  0  0  0  0  0  0  0
   -2.8492    1.5276    3.5967 C   0  0  0  0  0  0  0  0  0  0  0  0
   -2.5473    0.3366    2.7348 C   0  0  0  0  0  0  0  0  0  0  0  0
   -2.0484   -0.8545    3.5130 C   0  0  0  0  0  0  0  0  0  0  0  0
   -0.8751   -0.3517    4.3484 C   0  0  0  0  0  0  0  0  0  0  0  0
   -1.5546    0.6639    1.7796 O   0  0  0  0  0  0  0  0  0  0  0  0
   -1.9122    0.2265    0.5161 C   0  0  0  0  0  0  0  0  0  0  0  0
   -1.2139    0.1592   -0.6818 C   0  0  0  0  0  0  0  0  0  0  0  0
   -1.8286   -0.3321   -1.8167 C   0  0  0  0  0  0  0  0  0  0  0  0
   -3.1573   -0.7615   -1.7547 C   0  0  0  0  0  0  0  0  0  0  0  0
   -3.8194   -0.6799   -0.5481 C   0  0  0  0  0  0  0  0  0  0  0  0
   -3.2208   -0.1923    0.5938 C   0  0  0  0  0  0  0  0  0  0  0  0
   -3.6453   -0.0061    1.8999 O   0  0  0  0  0  0  0  0  0  0  0  0
  1  2  1  0
  2  3  1  0
  2  4  1  0
  4  5  1  0
  5  6  2  0
  6  7  1  0
  7  8  2  0
  8  9  1  0
  9 10  2  0
  8 11  1  0
  4 12  1  0
 12 13  2  0
 12 14  1  0
 14 15  1  0
 15 16  1  0
 16 17  1  0
 17 18  1  0
 18 19  1  0
 17 20  1  0
 20 21  1  0
 21 22  2  0
 22 23  1  0
 23 24  2  0
 24 25  1  0
 25 26  2  0
 26 27  1  0
 10  5  1  0
 19 14  1  0
 27 17  1  0
 26 21  1  0
M  END
$$$$
