
     RDKit          3D

 27 30  0  0  0  0  0  0  0  0999 V2000
   -4.7936    0.0235    7.4919 C   0  0  0  0  0  0  0  0  0  0  0  0
   -4.3715    1.4633    7.5406 C   0  0  0  0  0  0  0  0  0  0  0  0
   -4.5927    2.1699    6.2192 C   0  0  0  0  0  0  0  0  0  0  0  0
   -4.9273    2.2435    8.6894 C   0  0  0  0  0  0  0  0  0  0  0  0
   -4.0020    3.3622    8.9797 C   0  0  0  0  0  0  0  0  0  0  0  0
   -2.6289    3.2411    8.9921 C   0  0  0  0  0  0  0  0  0  0  0  0
   -1.8278    4.3392    9.2650 C   0  0  0  0  0  0  0  0  0  0  0  0
   -2.3768    5.5716    9.5294 C   0  0  0  0  0  0  0  0  0  0  0  0
   -3.7444    5.7081    9.5209 C   0  0  0  0  0  0  0  0  0  0  0  0
   -4.5166    4.6035    9.2473 C   0  0  0  0  0  0  0  0  0  0  0  0
   -1.3502    6.9667    9.8765 Cl  0  0  0  0  0  0  0  0  0  0  0  0
   -5.2280    1.4094    9.8795 C   0  0  0  0  0  0  0  0  0  0  0  0
   -4.3594    0.6123   10.3096 O   0  0  0  0  0  0  0  0  0  0  0  0
   -6.4687    1.4870   10.5447 N   0  0  0  0  0  0  0  0  0  0  0  0
   -6.7598    0.6093   11.6253 C   0  0  0  0  0  0  0  0  0  0  0  0
   -7.8641    1.0725   12.5281 C   0  0  0  0  0  0  0  0  0  0  0  0
   -8.9974    1.7484   11.8131 C   0  0  0  0  0  0  0  0  0  0  0  0
   -8.8007    1.8288   10.3205 C   0  0  0  0  0  0  0  0  0  0  0  0
   -7.4330    2.4708   10.1088 C   0  0  0  0  0  0  0  0  0  0  0  0
   -9.1563    3.0719   12.2908 O   0  0  0  0  0  0  0  0  0  0  0  0
  -10.4850    3.3509   12.5598 C   0  0  0  0  0  0  0  0  0  0  0  0
  -11.1474    4.5299   12.8734 C   0  0  0  0  0  0  0  0  0  0  0  0
  -12.5099    4.5216   13.0984 C   0  0  0  0  0  0  0  0  0  0  0  0
  -13.2200    3.3210   13.0092 C   0  0  0  0  0  0  0  0  0  0  0  0
  -12.5291    2.1698   12.6957 C   0  0  0  0  0  0  0  0  0  0  0  0
  -11.1696    2.1606   12.4682 C   0  0  0  0  0  0  0  0  0  0  0  0
  -10.2534    1.1720   12.1453 O   0  0  0  0  0  0  0  0  0  0  0  0
  1  2  1  0
  2  3  1  0
  2  4  1  0
  4  5  1  0
  5  6  2  0
  6  7  1  0
  7  8  2  0
  8  9  1  0
  9 10  2  0
  8 11  1  0
  4 12  1  0
 12 13  2  0
 12 14  1  0
 14 15  1  0
 15 16  1  0
 16 17  1  0
 17 18  1  0
 18 19  1  0
 17 20  1  0
 20 21  1  0
 21 22  2  0
 22 23  1  0
 23 24  2  0
 24 25  1  0
 25 26  2  0
 26 27  1  0
 10  5  1  0
 19 14  1  0
 27 17  1  0
 26 21  1  0
M  END
$$$$
