
     RDKit          3D

 27 30  0  0  0  0  0  0  0  0999 V2000
   -2.5450    0.9906    6.3221 C   0  0  0  0  0  0  0  0  0  0  0  0
   -2.9964    2.2384    7.0239 C   0  0  0  0  0  0  0  0  0  0  0  0
   -3.9273    3.0721    6.1679 C   0  0  0  0  0  0  0  0  0  0  0  0
   -3.5463    2.0236    8.3983 C   0  0  0  0  0  0  0  0  0  0  0  0
   -2.5149    1.3347    9.2068 C   0  0  0  0  0  0  0  0  0  0  0  0
   -1.2495    1.8352    9.4274 C   0  0  0  0  0  0  0  0  0  0  0  0
   -0.3407    1.1339   10.2046 C   0  0  0  0  0  0  0  0  0  0  0  0
   -0.6736   -0.0727   10.7733 C   0  0  0  0  0  0  0  0  0  0  0  0
   -1.9315   -0.5848   10.5623 C   0  0  0  0  0  0  0  0  0  0  0  0
   -2.8144    0.1305    9.7876 C   0  0  0  0  0  0  0  0  0  0  0  0
    0.4892   -0.9613   11.7625 Cl  0  0  0  0  0  0  0  0  0  0  0  0
   -4.8575    1.3285    8.4079 C   0  0  0  0  0  0  0  0  0  0  0  0
   -5.0772    0.4141    7.5770 O   0  0  0  0  0  0  0  0  0  0  0  0
   -5.8695    1.6678    9.3290 N   0  0  0  0  0  0  0  0  0  0  0  0
   -5.7274    2.8115   10.1625 C   0  0  0  0  0  0  0  0  0  0  0  0
   -7.0111    3.3291   10.7398 C   0  0  0  0  0  0  0  0  0  0  0  0
   -7.9818    2.2552   11.1359 C   0  0  0  0  0  0  0  0  0  0  0  0
   -7.4720    0.8608   10.8737 C   0  0  0  0  0  0  0  0  0  0  0  0
   -7.0475    0.8349    9.4085 C   0  0  0  0  0  0  0  0  0  0  0  0
   -9.1941    2.4042   10.4195 O   0  0  0  0  0  0  0  0  0  0  0  0
  -10.2884    2.3051   11.2611 C   0  0  0  0  0  0  0  0  0  0  0  0
  -11.6515    2.2142   11.0148 C   0  0  0  0  0  0  0  0  0  0  0  0
  -12.5422    2.1244   12.0664 C   0  0  0  0  0  0  0  0  0  0  0  0
  -12.0658    2.1254   13.3805 C   0  0  0  0  0  0  0  0  0  0  0  0
  -10.7058    2.2171   13.5870 C   0  0  0  0  0  0  0  0  0  0  0  0
   -9.8033    2.3074   12.5490 C   0  0  0  0  0  0  0  0  0  0  0  0
   -8.4228    2.4076   12.4785 O   0  0  0  0  0  0  0  0  0  0  0  0
  1  2  1  0
  2  3  1  0
  2  4  1  0
  4  5  1  0
  5  6  2  0
  6  7  1  0
  7  8  2  0
  8  9  1  0
  9 10  2  0
  8 11  1  0
  4 12  1  0
 12 13  2  0
 12 14  1  0
 14 15  1  0
 15 16  1  0
 16 17  1  0
 17 18  1  0
 18 19  1  0
 17 20  1  0
 20 21  1  0
 21 22  2  0
 22 23  1  0
 23 24  2  0
 24 25  1  0
 25 26  2  0
 26 27  1  0
 10  5  1  0
 19 14  1  0
 27 17  1  0
 26 21  1  0
M  END
$$$$
