
     RDKit          3D

 27 30  0  0  0  0  0  0  0  0999 V2000
   -7.4771    2.4589    7.0741 C   0  0  0  0  0  0  0  0  0  0  0  0
   -7.6649    1.8245    8.4216 C   0  0  0  0  0  0  0  0  0  0  0  0
   -6.3769    1.2405    8.9641 C   0  0  0  0  0  0  0  0  0  0  0  0
   -8.3552    2.6851    9.4316 C   0  0  0  0  0  0  0  0  0  0  0  0
   -7.3955    2.9835   10.5187 C   0  0  0  0  0  0  0  0  0  0  0  0
   -6.2750    2.2258   10.7850 C   0  0  0  0  0  0  0  0  0  0  0  0
   -5.4179    2.5751   11.8170 C   0  0  0  0  0  0  0  0  0  0  0  0
   -5.6598    3.6797   12.5990 C   0  0  0  0  0  0  0  0  0  0  0  0
   -6.7729    4.4451   12.3459 C   0  0  0  0  0  0  0  0  0  0  0  0
   -7.6072    4.0772   11.3163 C   0  0  0  0  0  0  0  0  0  0  0  0
   -4.5636    4.1192   13.9126 Cl  0  0  0  0  0  0  0  0  0  0  0  0
   -9.6335    2.1118    9.9212 C   0  0  0  0  0  0  0  0  0  0  0  0
  -10.5483    1.8543    9.1016 O   0  0  0  0  0  0  0  0  0  0  0  0
   -9.8513    1.8465   11.2887 N   0  0  0  0  0  0  0  0  0  0  0  0
  -11.1548    1.5261   11.7590 C   0  0  0  0  0  0  0  0  0  0  0  0
  -11.1877    0.8274   13.0855 C   0  0  0  0  0  0  0  0  0  0  0  0
  -10.1613    1.3201   14.0633 C   0  0  0  0  0  0  0  0  0  0  0  0
   -9.2951    2.4260   13.5158 C   0  0  0  0  0  0  0  0  0  0  0  0
   -8.7297    1.9062   12.1976 C   0  0  0  0  0  0  0  0  0  0  0  0
   -9.3032    0.2607   14.4460 O   0  0  0  0  0  0  0  0  0  0  0  0
   -9.1315    0.2267   15.8190 C   0  0  0  0  0  0  0  0  0  0  0  0
   -8.2731   -0.4966   16.6358 C   0  0  0  0  0  0  0  0  0  0  0  0
   -8.3157   -0.3315   18.0062 C   0  0  0  0  0  0  0  0  0  0  0  0
   -9.2269    0.5672   18.5682 C   0  0  0  0  0  0  0  0  0  0  0  0
  -10.0638    1.2683   17.7262 C   0  0  0  0  0  0  0  0  0  0  0  0
  -10.0343    1.1154   16.3567 C   0  0  0  0  0  0  0  0  0  0  0  0
  -10.7444    1.6796   15.3086 O   0  0  0  0  0  0  0  0  0  0  0  0
  1  2  1  0
  2  3  1  0
  2  4  1  0
  4  5  1  0
  5  6  2  0
  6  7  1  0
  7  8  2  0
  8  9  1  0
  9 10  2  0
  8 11  1  0
  4 12  1  0
 12 13  2  0
 12 14  1  0
 14 15  1  0
 15 16  1  0
 16 17  1  0
 17 18  1  0
 18 19  1  0
 17 20  1  0
 20 21  1  0
 21 22  2  0
 22 23  1  0
 23 24  2  0
 24 25  1  0
 25 26  2  0
 26 27  1  0
 10  5  1  0
 19 14  1  0
 27 17  1  0
 26 21  1  0
M  END
$$$$
