
     RDKit          3D

 27 30  0  0  0  0  0  0  0  0999 V2000
   -0.6281   -0.8648    6.1189 C   0  0  0  0  0  0  0  0  0  0  0  0
   -0.8665   -0.4482    7.5413 C   0  0  0  0  0  0  0  0  0  0  0  0
    0.2881   -0.8203    8.4483 C   0  0  0  0  0  0  0  0  0  0  0  0
   -1.2767    0.9792    7.7187 C   0  0  0  0  0  0  0  0  0  0  0  0
   -1.2734    1.2851    9.1672 C   0  0  0  0  0  0  0  0  0  0  0  0
   -1.9096    0.5150   10.1173 C   0  0  0  0  0  0  0  0  0  0  0  0
   -1.8536    0.8628   11.4581 C   0  0  0  0  0  0  0  0  0  0  0  0
   -1.1666    1.9783   11.8752 C   0  0  0  0  0  0  0  0  0  0  0  0
   -0.5273    2.7562   10.9397 C   0  0  0  0  0  0  0  0  0  0  0  0
   -0.5981    2.3894    9.6161 C   0  0  0  0  0  0  0  0  0  0  0  0
   -1.0993    2.4158   13.5853 Cl  0  0  0  0  0  0  0  0  0  0  0  0
   -2.5611    1.3118    7.0537 C   0  0  0  0  0  0  0  0  0  0  0  0
   -3.4725    1.8663    7.7145 O   0  0  0  0  0  0  0  0  0  0  0  0
   -2.7884    1.0209    5.6930 N   0  0  0  0  0  0  0  0  0  0  0  0
   -4.0820    1.1954    5.1281 C   0  0  0  0  0  0  0  0  0  0  0  0
   -4.1023    1.3078    3.6328 C   0  0  0  0  0  0  0  0  0  0  0  0
   -3.1185    0.4127    2.9375 C   0  0  0  0  0  0  0  0  0  0  0  0
   -2.2997   -0.4271    3.8848 C   0  0  0  0  0  0  0  0  0  0  0  0
   -1.6867    0.5446    4.8885 C   0  0  0  0  0  0  0  0  0  0  0  0
   -2.2150    1.1848    2.1677 O   0  0  0  0  0  0  0  0  0  0  0  0
   -2.0650    0.6594    0.8960 C   0  0  0  0  0  0  0  0  0  0  0  0
   -1.1854    0.9506   -0.1377 C   0  0  0  0  0  0  0  0  0  0  0  0
   -1.2594    0.2552   -1.3285 C   0  0  0  0  0  0  0  0  0  0  0  0
   -2.2239   -0.7436   -1.4893 C   0  0  0  0  0  0  0  0  0  0  0  0
   -3.0805   -1.0056   -0.4413 C   0  0  0  0  0  0  0  0  0  0  0  0
   -3.0202   -0.3211    0.7536 C   0  0  0  0  0  0  0  0  0  0  0  0
   -3.7399   -0.3823    1.9365 O   0  0  0  0  0  0  0  0  0  0  0  0
  1  2  1  0
  2  3  1  0
  2  4  1  0
  4  5  1  0
  5  6  2  0
  6  7  1  0
  7  8  2  0
  8  9  1  0
  9 10  2  0
  8 11  1  0
  4 12  1  0
 12 13  2  0
 12 14  1  0
 14 15  1  0
 15 16  1  0
 16 17  1  0
 17 18  1  0
 18 19  1  0
 17 20  1  0
 20 21  1  0
 21 22  2  0
 22 23  1  0
 23 24  2  0
 24 25  1  0
 25 26  2  0
 26 27  1  0
 10  5  1  0
 19 14  1  0
 27 17  1  0
 26 21  1  0
M  END
$$$$
