
     RDKit          3D

 27 30  0  0  0  0  0  0  0  0999 V2000
   -0.9271    1.7888    5.3445 C   0  0  0  0  0  0  0  0  0  0  0  0
   -1.4809    2.8523    6.2477 C   0  0  0  0  0  0  0  0  0  0  0  0
   -2.1409    3.9745    5.4736 C   0  0  0  0  0  0  0  0  0  0  0  0
   -2.3551    2.3478    7.3516 C   0  0  0  0  0  0  0  0  0  0  0  0
   -1.5226    1.5334    8.2658 C   0  0  0  0  0  0  0  0  0  0  0  0
   -1.7304    0.1919    8.5057 C   0  0  0  0  0  0  0  0  0  0  0  0
   -0.9011   -0.5053    9.3705 C   0  0  0  0  0  0  0  0  0  0  0  0
    0.1450    0.1175   10.0092 C   0  0  0  0  0  0  0  0  0  0  0  0
    0.3649    1.4548    9.7803 C   0  0  0  0  0  0  0  0  0  0  0  0
   -0.4721    2.1236    8.9180 C   0  0  0  0  0  0  0  0  0  0  0  0
    1.1980   -0.7768   11.1100 Cl  0  0  0  0  0  0  0  0  0  0  0  0
   -3.5633    1.6338    6.8689 C   0  0  0  0  0  0  0  0  0  0  0  0
   -3.4952    0.9430    5.8235 O   0  0  0  0  0  0  0  0  0  0  0  0
   -4.7927    1.7097    7.5549 N   0  0  0  0  0  0  0  0  0  0  0  0
   -5.9574    1.1016    7.0101 C   0  0  0  0  0  0  0  0  0  0  0  0
   -7.0516    0.8436    8.0026 C   0  0  0  0  0  0  0  0  0  0  0  0
   -7.2078    1.9205    9.0363 C   0  0  0  0  0  0  0  0  0  0  0  0
   -6.2284    3.0549    8.8719 C   0  0  0  0  0  0  0  0  0  0  0  0
   -4.8452    2.4137    8.8156 C   0  0  0  0  0  0  0  0  0  0  0  0
   -7.0197    1.3837   10.3331 O   0  0  0  0  0  0  0  0  0  0  0  0
   -8.0152    1.8039   11.1980 C   0  0  0  0  0  0  0  0  0  0  0  0
   -8.1673    1.6907   12.5732 C   0  0  0  0  0  0  0  0  0  0  0  0
   -9.2855    2.2129   13.1930 C   0  0  0  0  0  0  0  0  0  0  0  0
  -10.2641    2.8563   12.4300 C   0  0  0  0  0  0  0  0  0  0  0  0
  -10.0794    2.9499   11.0670 C   0  0  0  0  0  0  0  0  0  0  0  0
   -8.9695    2.4344   10.4327 C   0  0  0  0  0  0  0  0  0  0  0  0
   -8.5465    2.3916    9.1135 O   0  0  0  0  0  0  0  0  0  0  0  0
  1  2  1  0
  2  3  1  0
  2  4  1  0
  4  5  1  0
  5  6  2  0
  6  7  1  0
  7  8  2  0
  8  9  1  0
  9 10  2  0
  8 11  1  0
  4 12  1  0
 12 13  2  0
 12 14  1  0
 14 15  1  0
 15 16  1  0
 16 17  1  0
 17 18  1  0
 18 19  1  0
 17 20  1  0
 20 21  1  0
 21 22  2  0
 22 23  1  0
 23 24  2  0
 24 25  1  0
 25 26  2  0
 26 27  1  0
 10  5  1  0
 19 14  1  0
 27 17  1  0
 26 21  1  0
M  END
$$$$
