
     RDKit          3D

 27 30  0  0  0  0  0  0  0  0999 V2000
   -2.0885    3.6189   10.9663 C   0  0  0  0  0  0  0  0  0  0  0  0
   -2.2560    3.9176    9.5047 C   0  0  0  0  0  0  0  0  0  0  0  0
   -0.9552    4.3398    8.8537 C   0  0  0  0  0  0  0  0  0  0  0  0
   -2.9510    2.8505    8.7200 C   0  0  0  0  0  0  0  0  0  0  0  0
   -2.2454    1.5701    8.9541 C   0  0  0  0  0  0  0  0  0  0  0  0
   -2.8834    0.3799    9.2312 C   0  0  0  0  0  0  0  0  0  0  0  0
   -2.1523   -0.7810    9.4304 C   0  0  0  0  0  0  0  0  0  0  0  0
   -0.7793   -0.7777    9.3580 C   0  0  0  0  0  0  0  0  0  0  0  0
   -0.1289    0.4013    9.0827 C   0  0  0  0  0  0  0  0  0  0  0  0
   -0.8773    1.5388    8.8891 C   0  0  0  0  0  0  0  0  0  0  0  0
    0.1463   -2.2605    9.6130 Cl  0  0  0  0  0  0  0  0  0  0  0  0
   -3.1030    3.1797    7.2809 C   0  0  0  0  0  0  0  0  0  0  0  0
   -3.5515    4.3038    6.9492 O   0  0  0  0  0  0  0  0  0  0  0  0
   -2.7560    2.2607    6.2696 N   0  0  0  0  0  0  0  0  0  0  0  0
   -2.2985    0.9577    6.6101 C   0  0  0  0  0  0  0  0  0  0  0  0
   -2.4065   -0.0521    5.5066 C   0  0  0  0  0  0  0  0  0  0  0  0
   -2.0990    0.4948    4.1432 C   0  0  0  0  0  0  0  0  0  0  0  0
   -1.7404    1.9592    4.1524 C   0  0  0  0  0  0  0  0  0  0  0  0
   -2.8741    2.6670    4.8881 C   0  0  0  0  0  0  0  0  0  0  0  0
   -3.2185    0.3387    3.2904 O   0  0  0  0  0  0  0  0  0  0  0  0
   -2.8446   -0.1826    2.0639 C   0  0  0  0  0  0  0  0  0  0  0  0
   -3.5338   -0.3502    0.8705 C   0  0  0  0  0  0  0  0  0  0  0  0
   -2.9026   -0.9109   -0.2224 C   0  0  0  0  0  0  0  0  0  0  0  0
   -1.5665   -1.3091   -0.1225 C   0  0  0  0  0  0  0  0  0  0  0  0
   -0.9139   -1.1272    1.0782 C   0  0  0  0  0  0  0  0  0  0  0  0
   -1.5289   -0.5694    2.1785 C   0  0  0  0  0  0  0  0  0  0  0  0
   -1.1164   -0.2806    3.4698 O   0  0  0  0  0  0  0  0  0  0  0  0
  1  2  1  0
  2  3  1  0
  2  4  1  0
  4  5  1  0
  5  6  2  0
  6  7  1  0
  7  8  2  0
  8  9  1  0
  9 10  2  0
  8 11  1  0
  4 12  1  0
 12 13  2  0
 12 14  1  0
 14 15  1  0
 15 16  1  0
 16 17  1  0
 17 18  1  0
 18 19  1  0
 17 20  1  0
 20 21  1  0
 21 22  2  0
 22 23  1  0
 23 24  2  0
 24 25  1  0
 25 26  2  0
 26 27  1  0
 10  5  1  0
 19 14  1  0
 27 17  1  0
 26 21  1  0
M  END
$$$$
