
     RDKit          3D

 27 30  0  0  0  0  0  0  0  0999 V2000
   -1.2715    4.5006    9.7290 C   0  0  0  0  0  0  0  0  0  0  0  0
   -1.2050    3.4753    8.6346 C   0  0  0  0  0  0  0  0  0  0  0  0
    0.1223    2.7458    8.6131 C   0  0  0  0  0  0  0  0  0  0  0  0
   -2.3619    2.5283    8.5882 C   0  0  0  0  0  0  0  0  0  0  0  0
   -1.9396    1.3176    7.8481 C   0  0  0  0  0  0  0  0  0  0  0  0
   -1.6208    0.1196    8.4512 C   0  0  0  0  0  0  0  0  0  0  0  0
   -1.2415   -0.9737    7.6879 C   0  0  0  0  0  0  0  0  0  0  0  0
   -1.1727   -0.8944    6.3171 C   0  0  0  0  0  0  0  0  0  0  0  0
   -1.4873    0.2934    5.7013 C   0  0  0  0  0  0  0  0  0  0  0  0
   -1.8608    1.3629    6.4811 C   0  0  0  0  0  0  0  0  0  0  0  0
   -0.6885   -2.2914    5.3505 Cl  0  0  0  0  0  0  0  0  0  0  0  0
   -3.6036    3.1385    8.0512 C   0  0  0  0  0  0  0  0  0  0  0  0
   -3.5227    4.1269    7.2823 O   0  0  0  0  0  0  0  0  0  0  0  0
   -4.8790    2.6370    8.3821 N   0  0  0  0  0  0  0  0  0  0  0  0
   -5.0071    1.3984    9.0695 C   0  0  0  0  0  0  0  0  0  0  0  0
   -6.3225    1.1996    9.7617 C   0  0  0  0  0  0  0  0  0  0  0  0
   -7.5012    1.7374    9.0040 C   0  0  0  0  0  0  0  0  0  0  0  0
   -7.1279    2.3750    7.6898 C   0  0  0  0  0  0  0  0  0  0  0  0
   -6.0469    3.4025    8.0109 C   0  0  0  0  0  0  0  0  0  0  0  0
   -8.1710    2.7183    9.7749 O   0  0  0  0  0  0  0  0  0  0  0  0
   -9.5392    2.5088    9.7720 C   0  0  0  0  0  0  0  0  0  0  0  0
  -10.6030    3.2767   10.2255 C   0  0  0  0  0  0  0  0  0  0  0  0
  -11.8979    2.8150   10.0938 C   0  0  0  0  0  0  0  0  0  0  0  0
  -12.1335    1.5709    9.5018 C   0  0  0  0  0  0  0  0  0  0  0  0
  -11.0527    0.8359    9.0633 C   0  0  0  0  0  0  0  0  0  0  0  0
   -9.7543    1.2819    9.1870 C   0  0  0  0  0  0  0  0  0  0  0  0
   -8.5186    0.7585    8.8407 O   0  0  0  0  0  0  0  0  0  0  0  0
  1  2  1  0
  2  3  1  0
  2  4  1  0
  4  5  1  0
  5  6  2  0
  6  7  1  0
  7  8  2  0
  8  9  1  0
  9 10  2  0
  8 11  1  0
  4 12  1  0
 12 13  2  0
 12 14  1  0
 14 15  1  0
 15 16  1  0
 16 17  1  0
 17 18  1  0
 18 19  1  0
 17 20  1  0
 20 21  1  0
 21 22  2  0
 22 23  1  0
 23 24  2  0
 24 25  1  0
 25 26  2  0
 26 27  1  0
 10  5  1  0
 19 14  1  0
 27 17  1  0
 26 21  1  0
M  END
$$$$
