
     RDKit          3D

 27 30  0  0  0  0  0  0  0  0999 V2000
   -2.2845    1.4005    6.4432 C   0  0  0  0  0  0  0  0  0  0  0  0
   -3.0098    1.1322    7.7299 C   0  0  0  0  0  0  0  0  0  0  0  0
   -2.1493    0.3843    8.7271 C   0  0  0  0  0  0  0  0  0  0  0  0
   -3.6634    2.3288    8.3451 C   0  0  0  0  0  0  0  0  0  0  0  0
   -2.6155    3.3372    8.6223 C   0  0  0  0  0  0  0  0  0  0  0  0
   -2.5501    4.5681    8.0049 C   0  0  0  0  0  0  0  0  0  0  0  0
   -1.5411    5.4634    8.3249 C   0  0  0  0  0  0  0  0  0  0  0  0
   -0.5836    5.1508    9.2606 C   0  0  0  0  0  0  0  0  0  0  0  0
   -0.6354    3.9272    9.8846 C   0  0  0  0  0  0  0  0  0  0  0  0
   -1.6463    3.0572    9.5494 C   0  0  0  0  0  0  0  0  0  0  0  0
    0.6994    6.2962    9.6635 Cl  0  0  0  0  0  0  0  0  0  0  0  0
   -4.4913    2.0040    9.5333 C   0  0  0  0  0  0  0  0  0  0  0  0
   -3.9432    1.5218   10.5540 O   0  0  0  0  0  0  0  0  0  0  0  0
   -5.8840    2.2227    9.5485 N   0  0  0  0  0  0  0  0  0  0  0  0
   -6.5164    2.8974    8.4678 C   0  0  0  0  0  0  0  0  0  0  0  0
   -7.9945    2.6663    8.3644 C   0  0  0  0  0  0  0  0  0  0  0  0
   -8.6974    2.5927    9.6885 C   0  0  0  0  0  0  0  0  0  0  0  0
   -7.7736    2.7665   10.8672 C   0  0  0  0  0  0  0  0  0  0  0  0
   -6.6515    1.7503   10.6778 C   0  0  0  0  0  0  0  0  0  0  0  0
   -9.3364    1.3374    9.8332 O   0  0  0  0  0  0  0  0  0  0  0  0
  -10.6357    1.4864   10.2862 C   0  0  0  0  0  0  0  0  0  0  0  0
  -11.5799    0.5724   10.7337 C   0  0  0  0  0  0  0  0  0  0  0  0
  -12.8284    1.0049   11.1355 C   0  0  0  0  0  0  0  0  0  0  0  0
  -13.1380    2.3672   11.0898 C   0  0  0  0  0  0  0  0  0  0  0  0
  -12.1756    3.2458   10.6398 C   0  0  0  0  0  0  0  0  0  0  0  0
  -10.9249    2.8309   10.2352 C   0  0  0  0  0  0  0  0  0  0  0  0
   -9.8020    3.4848    9.7531 O   0  0  0  0  0  0  0  0  0  0  0  0
  1  2  1  0
  2  3  1  0
  2  4  1  0
  4  5  1  0
  5  6  2  0
  6  7  1  0
  7  8  2  0
  8  9  1  0
  9 10  2  0
  8 11  1  0
  4 12  1  0
 12 13  2  0
 12 14  1  0
 14 15  1  0
 15 16  1  0
 16 17  1  0
 17 18  1  0
 18 19  1  0
 17 20  1  0
 20 21  1  0
 21 22  2  0
 22 23  1  0
 23 24  2  0
 24 25  1  0
 25 26  2  0
 26 27  1  0
 10  5  1  0
 19 14  1  0
 27 17  1  0
 26 21  1  0
M  END
$$$$
