
     RDKit          3D

 27 30  0  0  0  0  0  0  0  0999 V2000
   -1.2285    0.3108    3.1511 C   0  0  0  0  0  0  0  0  0  0  0  0
   -1.0458   -0.2580    4.5283 C   0  0  0  0  0  0  0  0  0  0  0  0
    0.1052   -1.2405    4.5941 C   0  0  0  0  0  0  0  0  0  0  0  0
   -0.9747    0.7576    5.6242 C   0  0  0  0  0  0  0  0  0  0  0  0
   -0.5129    0.0778    6.8557 C   0  0  0  0  0  0  0  0  0  0  0  0
    0.7771    0.1503    7.3366 C   0  0  0  0  0  0  0  0  0  0  0  0
    1.1313   -0.5087    8.5038 C   0  0  0  0  0  0  0  0  0  0  0  0
    0.2121   -1.2482    9.2097 C   0  0  0  0  0  0  0  0  0  0  0  0
   -1.0780   -1.3301    8.7427 C   0  0  0  0  0  0  0  0  0  0  0  0
   -1.4038   -0.6672    7.5826 C   0  0  0  0  0  0  0  0  0  0  0  0
    0.6701   -2.0855   10.6961 Cl  0  0  0  0  0  0  0  0  0  0  0  0
   -2.2380    1.5133    5.8121 C   0  0  0  0  0  0  0  0  0  0  0  0
   -3.3104    1.0449    5.3588 O   0  0  0  0  0  0  0  0  0  0  0  0
   -2.2685    2.7496    6.4891 N   0  0  0  0  0  0  0  0  0  0  0  0
   -3.4980    3.4434    6.6617 C   0  0  0  0  0  0  0  0  0  0  0  0
   -3.4915    4.4657    7.7589 C   0  0  0  0  0  0  0  0  0  0  0  0
   -2.2031    5.2257    7.8807 C   0  0  0  0  0  0  0  0  0  0  0  0
   -1.1643    4.8089    6.8706 C   0  0  0  0  0  0  0  0  0  0  0  0
   -1.0321    3.2946    7.0011 C   0  0  0  0  0  0  0  0  0  0  0  0
   -1.6430    5.0346    9.1671 O   0  0  0  0  0  0  0  0  0  0  0  0
   -1.2388    6.2370    9.7207 C   0  0  0  0  0  0  0  0  0  0  0  0
   -0.4985    6.5416   10.8549 C   0  0  0  0  0  0  0  0  0  0  0  0
   -0.2365    7.8580   11.1797 C   0  0  0  0  0  0  0  0  0  0  0  0
   -0.7197    8.8833   10.3617 C   0  0  0  0  0  0  0  0  0  0  0  0
   -1.4511    8.5433    9.2436 C   0  0  0  0  0  0  0  0  0  0  0  0
   -1.7216    7.2348    8.9050 C   0  0  0  0  0  0  0  0  0  0  0  0
   -2.4128    6.6314    7.8663 O   0  0  0  0  0  0  0  0  0  0  0  0
  1  2  1  0
  2  3  1  0
  2  4  1  0
  4  5  1  0
  5  6  2  0
  6  7  1  0
  7  8  2  0
  8  9  1  0
  9 10  2  0
  8 11  1  0
  4 12  1  0
 12 13  2  0
 12 14  1  0
 14 15  1  0
 15 16  1  0
 16 17  1  0
 17 18  1  0
 18 19  1  0
 17 20  1  0
 20 21  1  0
 21 22  2  0
 22 23  1  0
 23 24  2  0
 24 25  1  0
 25 26  2  0
 26 27  1  0
 10  5  1  0
 19 14  1  0
 27 17  1  0
 26 21  1  0
M  END
$$$$
