
     RDKit          3D

 27 30  0  0  0  0  0  0  0  0999 V2000
  -11.2890    0.9555    8.7585 C   0  0  0  0  0  0  0  0  0  0  0  0
  -10.8454    2.2319    9.4124 C   0  0  0  0  0  0  0  0  0  0  0  0
  -11.9628    2.8947   10.1912 C   0  0  0  0  0  0  0  0  0  0  0  0
   -9.5918    2.1221   10.2211 C   0  0  0  0  0  0  0  0  0  0  0  0
   -9.9671    1.7855   11.6131 C   0  0  0  0  0  0  0  0  0  0  0  0
   -9.7631    0.5489   12.1872 C   0  0  0  0  0  0  0  0  0  0  0  0
  -10.1347    0.3131   13.5018 C   0  0  0  0  0  0  0  0  0  0  0  0
  -10.7135    1.2994   14.2648 C   0  0  0  0  0  0  0  0  0  0  0  0
  -10.9236    2.5376   13.7064 C   0  0  0  0  0  0  0  0  0  0  0  0
  -10.5459    2.7458   12.4005 C   0  0  0  0  0  0  0  0  0  0  0  0
  -11.1848    0.9922   15.9393 Cl  0  0  0  0  0  0  0  0  0  0  0  0
   -8.7193    3.3186   10.1236 C   0  0  0  0  0  0  0  0  0  0  0  0
   -9.2162    4.4594   10.2869 O   0  0  0  0  0  0  0  0  0  0  0  0
   -7.3403    3.2102    9.8512 N   0  0  0  0  0  0  0  0  0  0  0  0
   -6.5833    4.3646    9.5089 C   0  0  0  0  0  0  0  0  0  0  0  0
   -5.1025    4.2209    9.6970 C   0  0  0  0  0  0  0  0  0  0  0  0
   -4.5676    2.8658    9.3363 C   0  0  0  0  0  0  0  0  0  0  0  0
   -5.6304    1.9116    8.8536 C   0  0  0  0  0  0  0  0  0  0  0  0
   -6.7150    1.9097    9.9265 C   0  0  0  0  0  0  0  0  0  0  0  0
   -3.9445    2.2716   10.4604 O   0  0  0  0  0  0  0  0  0  0  0  0
   -2.7116    1.7388   10.1259 C   0  0  0  0  0  0  0  0  0  0  0  0
   -1.8247    0.9274   10.8203 C   0  0  0  0  0  0  0  0  0  0  0  0
   -0.6376    0.5356   10.2336 C   0  0  0  0  0  0  0  0  0  0  0  0
   -0.3321    0.9592    8.9371 C   0  0  0  0  0  0  0  0  0  0  0  0
   -1.2366    1.7643    8.2779 C   0  0  0  0  0  0  0  0  0  0  0  0
   -2.4256    2.1644    8.8488 C   0  0  0  0  0  0  0  0  0  0  0  0
   -3.4842    2.9497    8.4201 O   0  0  0  0  0  0  0  0  0  0  0  0
  1  2  1  0
  2  3  1  0
  2  4  1  0
  4  5  1  0
  5  6  2  0
  6  7  1  0
  7  8  2  0
  8  9  1  0
  9 10  2  0
  8 11  1  0
  4 12  1  0
 12 13  2  0
 12 14  1  0
 14 15  1  0
 15 16  1  0
 16 17  1  0
 17 18  1  0
 18 19  1  0
 17 20  1  0
 20 21  1  0
 21 22  2  0
 22 23  1  0
 23 24  2  0
 24 25  1  0
 25 26  2  0
 26 27  1  0
 10  5  1  0
 19 14  1  0
 27 17  1  0
 26 21  1  0
M  END
$$$$
