
     RDKit          3D

 27 30  0  0  0  0  0  0  0  0999 V2000
   -4.6283    0.1292    8.3764 C   0  0  0  0  0  0  0  0  0  0  0  0
   -3.2674    0.4140    8.9425 C   0  0  0  0  0  0  0  0  0  0  0  0
   -2.8312   -0.6377    9.9415 C   0  0  0  0  0  0  0  0  0  0  0  0
   -2.2070    0.6886    7.9239 C   0  0  0  0  0  0  0  0  0  0  0  0
   -0.9815    1.1170    8.6357 C   0  0  0  0  0  0  0  0  0  0  0  0
    0.1436    0.3319    8.7709 C   0  0  0  0  0  0  0  0  0  0  0  0
    1.2571    0.8078    9.4457 C   0  0  0  0  0  0  0  0  0  0  0  0
    1.2706    2.0678    9.9955 C   0  0  0  0  0  0  0  0  0  0  0  0
    0.1562    2.8624    9.8692 C   0  0  0  0  0  0  0  0  0  0  0  0
   -0.9353    2.3668    9.1951 C   0  0  0  0  0  0  0  0  0  0  0  0
    2.6928    2.6680   10.8542 Cl  0  0  0  0  0  0  0  0  0  0  0  0
   -2.6338    1.6414    6.8691 C   0  0  0  0  0  0  0  0  0  0  0  0
   -3.1422    2.7401    7.1992 O   0  0  0  0  0  0  0  0  0  0  0  0
   -2.4838    1.3459    5.4987 N   0  0  0  0  0  0  0  0  0  0  0  0
   -3.0517    2.2005    4.5138 C   0  0  0  0  0  0  0  0  0  0  0  0
   -2.4553    2.0613    3.1449 C   0  0  0  0  0  0  0  0  0  0  0  0
   -2.1032    0.6513    2.7703 C   0  0  0  0  0  0  0  0  0  0  0  0
   -2.4203   -0.3521    3.8500 C   0  0  0  0  0  0  0  0  0  0  0  0
   -1.7454    0.1639    5.1172 C   0  0  0  0  0  0  0  0  0  0  0  0
   -0.7183    0.5509    2.4929 O   0  0  0  0  0  0  0  0  0  0  0  0
   -0.4922   -0.1459    1.3185 C   0  0  0  0  0  0  0  0  0  0  0  0
    0.6656   -0.6398    0.7332 C   0  0  0  0  0  0  0  0  0  0  0  0
    0.6016   -1.3128   -0.4710 C   0  0  0  0  0  0  0  0  0  0  0  0
   -0.6340   -1.4950   -1.0986 C   0  0  0  0  0  0  0  0  0  0  0  0
   -1.7626   -0.9909   -0.4880 C   0  0  0  0  0  0  0  0  0  0  0  0
   -1.7164   -0.3169    0.7135 C   0  0  0  0  0  0  0  0  0  0  0  0
   -2.6724    0.2758    1.5232 O   0  0  0  0  0  0  0  0  0  0  0  0
  1  2  1  0
  2  3  1  0
  2  4  1  0
  4  5  1  0
  5  6  2  0
  6  7  1  0
  7  8  2  0
  8  9  1  0
  9 10  2  0
  8 11  1  0
  4 12  1  0
 12 13  2  0
 12 14  1  0
 14 15  1  0
 15 16  1  0
 16 17  1  0
 17 18  1  0
 18 19  1  0
 17 20  1  0
 20 21  1  0
 21 22  2  0
 22 23  1  0
 23 24  2  0
 24 25  1  0
 25 26  2  0
 26 27  1  0
 10  5  1  0
 19 14  1  0
 27 17  1  0
 26 21  1  0
M  END
$$$$
