
     RDKit          3D

 27 30  0  0  0  0  0  0  0  0999 V2000
   -5.2284    3.0496    6.4127 C   0  0  0  0  0  0  0  0  0  0  0  0
   -4.3930    3.0547    7.6599 C   0  0  0  0  0  0  0  0  0  0  0  0
   -3.6902    4.3795    7.8730 C   0  0  0  0  0  0  0  0  0  0  0  0
   -5.1022    2.5955    8.8943 C   0  0  0  0  0  0  0  0  0  0  0  0
   -4.1317    1.8652    9.7409 C   0  0  0  0  0  0  0  0  0  0  0  0
   -3.3435    0.8287    9.2883 C   0  0  0  0  0  0  0  0  0  0  0  0
   -2.4506    0.1989   10.1414 C   0  0  0  0  0  0  0  0  0  0  0  0
   -2.3271    0.5876   11.4544 C   0  0  0  0  0  0  0  0  0  0  0  0
   -3.1063    1.6194   11.9204 C   0  0  0  0  0  0  0  0  0  0  0  0
   -3.9841    2.2276   11.0539 C   0  0  0  0  0  0  0  0  0  0  0  0
   -1.1874   -0.2193   12.5362 Cl  0  0  0  0  0  0  0  0  0  0  0  0
   -6.3342    1.8174    8.6128 C   0  0  0  0  0  0  0  0  0  0  0  0
   -6.3993    1.1205    7.5712 O   0  0  0  0  0  0  0  0  0  0  0  0
   -7.4402    1.8388    9.4868 N   0  0  0  0  0  0  0  0  0  0  0  0
   -8.6068    1.0824    9.1869 C   0  0  0  0  0  0  0  0  0  0  0  0
   -9.4967    0.8111   10.3631 C   0  0  0  0  0  0  0  0  0  0  0  0
   -9.5982    1.9534   11.3312 C   0  0  0  0  0  0  0  0  0  0  0  0
   -8.7809    3.1544   10.9279 C   0  0  0  0  0  0  0  0  0  0  0  0
   -7.3650    2.6401   10.6868 C   0  0  0  0  0  0  0  0  0  0  0  0
   -9.1517    1.5487   12.6126 O   0  0  0  0  0  0  0  0  0  0  0  0
  -10.0356    1.9483   13.5999 C   0  0  0  0  0  0  0  0  0  0  0  0
   -9.9548    1.9395   14.9858 C   0  0  0  0  0  0  0  0  0  0  0  0
  -11.0087    2.4082   15.7452 C   0  0  0  0  0  0  0  0  0  0  0  0
  -12.1577    2.8918   15.1130 C   0  0  0  0  0  0  0  0  0  0  0  0
  -12.2024    2.8853   13.7351 C   0  0  0  0  0  0  0  0  0  0  0  0
  -11.1597    2.4212   12.9623 C   0  0  0  0  0  0  0  0  0  0  0  0
  -10.9494    2.3049   11.5973 O   0  0  0  0  0  0  0  0  0  0  0  0
  1  2  1  0
  2  3  1  0
  2  4  1  0
  4  5  1  0
  5  6  2  0
  6  7  1  0
  7  8  2  0
  8  9  1  0
  9 10  2  0
  8 11  1  0
  4 12  1  0
 12 13  2  0
 12 14  1  0
 14 15  1  0
 15 16  1  0
 16 17  1  0
 17 18  1  0
 18 19  1  0
 17 20  1  0
 20 21  1  0
 21 22  2  0
 22 23  1  0
 23 24  2  0
 24 25  1  0
 25 26  2  0
 26 27  1  0
 10  5  1  0
 19 14  1  0
 27 17  1  0
 26 21  1  0
M  END
$$$$
