
     RDKit          3D

 27 30  0  0  0  0  0  0  0  0999 V2000
   -5.4389   -1.0456   10.3560 C   0  0  0  0  0  0  0  0  0  0  0  0
   -4.5458   -0.0021    9.7502 C   0  0  0  0  0  0  0  0  0  0  0  0
   -3.9981   -0.4286    8.4039 C   0  0  0  0  0  0  0  0  0  0  0  0
   -5.1283    1.3748    9.7037 C   0  0  0  0  0  0  0  0  0  0  0  0
   -4.0587    2.3164    9.3020 C   0  0  0  0  0  0  0  0  0  0  0  0
   -2.7868    2.3078    9.8337 C   0  0  0  0  0  0  0  0  0  0  0  0
   -1.8360    3.2182    9.3990 C   0  0  0  0  0  0  0  0  0  0  0  0
   -2.1328    4.1491    8.4319 C   0  0  0  0  0  0  0  0  0  0  0  0
   -3.3967    4.1703    7.8923 C   0  0  0  0  0  0  0  0  0  0  0  0
   -4.3216    3.2565    8.3406 C   0  0  0  0  0  0  0  0  0  0  0  0
   -0.9165    5.3063    7.8825 Cl  0  0  0  0  0  0  0  0  0  0  0  0
   -5.8132    1.7692   10.9598 C   0  0  0  0  0  0  0  0  0  0  0  0
   -5.1413    1.9127   12.0100 O   0  0  0  0  0  0  0  0  0  0  0  0
   -7.2051    1.9884   11.0078 N   0  0  0  0  0  0  0  0  0  0  0  0
   -7.9843    1.9165    9.8201 C   0  0  0  0  0  0  0  0  0  0  0  0
   -9.4516    1.7039   10.0458 C   0  0  0  0  0  0  0  0  0  0  0  0
  -10.0014    2.4370   11.2344 C   0  0  0  0  0  0  0  0  0  0  0  0
   -8.9643    3.2466   11.9708 C   0  0  0  0  0  0  0  0  0  0  0  0
   -7.8205    2.2858   12.2808 C   0  0  0  0  0  0  0  0  0  0  0  0
  -10.5575    1.5203   12.1593 O   0  0  0  0  0  0  0  0  0  0  0  0
  -11.8055    1.9374   12.5886 C   0  0  0  0  0  0  0  0  0  0  0  0
  -12.6486    1.4819   13.5930 C   0  0  0  0  0  0  0  0  0  0  0  0
  -13.8658    2.0973   13.8095 C   0  0  0  0  0  0  0  0  0  0  0  0
  -14.2459    3.1813   13.0130 C   0  0  0  0  0  0  0  0  0  0  0  0
  -13.3832    3.6062   12.0252 C   0  0  0  0  0  0  0  0  0  0  0  0
  -12.1650    3.0034   11.7959 C   0  0  0  0  0  0  0  0  0  0  0  0
  -11.1353    3.2237   10.8947 O   0  0  0  0  0  0  0  0  0  0  0  0
  1  2  1  0
  2  3  1  0
  2  4  1  0
  4  5  1  0
  5  6  2  0
  6  7  1  0
  7  8  2  0
  8  9  1  0
  9 10  2  0
  8 11  1  0
  4 12  1  0
 12 13  2  0
 12 14  1  0
 14 15  1  0
 15 16  1  0
 16 17  1  0
 17 18  1  0
 18 19  1  0
 17 20  1  0
 20 21  1  0
 21 22  2  0
 22 23  1  0
 23 24  2  0
 24 25  1  0
 25 26  2  0
 26 27  1  0
 10  5  1  0
 19 14  1  0
 27 17  1  0
 26 21  1  0
M  END
$$$$
