
     RDKit          3D

 27 30  0  0  0  0  0  0  0  0999 V2000
   -5.0594    4.3699    4.4285 C   0  0  0  0  0  0  0  0  0  0  0  0
   -5.4024    4.0626    5.8573 C   0  0  0  0  0  0  0  0  0  0  0  0
   -6.8818    4.2256    6.1389 C   0  0  0  0  0  0  0  0  0  0  0  0
   -4.8799    2.7553    6.3627 C   0  0  0  0  0  0  0  0  0  0  0  0
   -5.3509    2.5758    7.7548 C   0  0  0  0  0  0  0  0  0  0  0  0
   -5.0857    3.4621    8.7768 C   0  0  0  0  0  0  0  0  0  0  0  0
   -5.5698    3.2283   10.0547 C   0  0  0  0  0  0  0  0  0  0  0  0
   -6.3229    2.1132   10.3367 C   0  0  0  0  0  0  0  0  0  0  0  0
   -6.5956    1.2202    9.3281 C   0  0  0  0  0  0  0  0  0  0  0  0
   -6.1038    1.4752    8.0693 C   0  0  0  0  0  0  0  0  0  0  0  0
   -6.9366    1.8212   11.9672 Cl  0  0  0  0  0  0  0  0  0  0  0  0
   -3.4097    2.6119    6.2198 C   0  0  0  0  0  0  0  0  0  0  0  0
   -2.8370    3.0994    5.2152 O   0  0  0  0  0  0  0  0  0  0  0  0
   -2.6332    1.9396    7.1856 N   0  0  0  0  0  0  0  0  0  0  0  0
   -1.2281    2.1505    7.2505 C   0  0  0  0  0  0  0  0  0  0  0  0
   -0.5977    1.7715    8.5574 C   0  0  0  0  0  0  0  0  0  0  0  0
   -1.1787    0.5371    9.1829 C   0  0  0  0  0  0  0  0  0  0  0  0
   -2.2873   -0.0813    8.3694 C   0  0  0  0  0  0  0  0  0  0  0  0
   -3.2900    1.0371    8.1031 C   0  0  0  0  0  0  0  0  0  0  0  0
   -1.7095    0.8403   10.4601 O   0  0  0  0  0  0  0  0  0  0  0  0
   -1.3058   -0.0887   11.4034 C   0  0  0  0  0  0  0  0  0  0  0  0
   -1.6908   -0.3134   12.7180 C   0  0  0  0  0  0  0  0  0  0  0  0
   -1.1108   -1.3334   13.4463 C   0  0  0  0  0  0  0  0  0  0  0  0
   -0.1340   -2.1391   12.8544 C   0  0  0  0  0  0  0  0  0  0  0  0
    0.2233   -1.8867   11.5470 C   0  0  0  0  0  0  0  0  0  0  0  0
   -0.3455   -0.8730   10.8062 C   0  0  0  0  0  0  0  0  0  0  0  0
   -0.1751   -0.4150    9.5092 O   0  0  0  0  0  0  0  0  0  0  0  0
  1  2  1  0
  2  3  1  0
  2  4  1  0
  4  5  1  0
  5  6  2  0
  6  7  1  0
  7  8  2  0
  8  9  1  0
  9 10  2  0
  8 11  1  0
  4 12  1  0
 12 13  2  0
 12 14  1  0
 14 15  1  0
 15 16  1  0
 16 17  1  0
 17 18  1  0
 18 19  1  0
 17 20  1  0
 20 21  1  0
 21 22  2  0
 22 23  1  0
 23 24  2  0
 24 25  1  0
 25 26  2  0
 26 27  1  0
 10  5  1  0
 19 14  1  0
 27 17  1  0
 26 21  1  0
M  END
$$$$
