
     RDKit          3D

 27 30  0  0  0  0  0  0  0  0999 V2000
   -9.0176    0.1479   16.2699 C   0  0  0  0  0  0  0  0  0  0  0  0
  -10.2825    0.8260   15.8299 C   0  0  0  0  0  0  0  0  0  0  0  0
  -10.9671    1.5551   16.9675 C   0  0  0  0  0  0  0  0  0  0  0  0
  -10.1440    1.6908   14.6173 C   0  0  0  0  0  0  0  0  0  0  0  0
  -11.3079    2.6043   14.5650 C   0  0  0  0  0  0  0  0  0  0  0  0
  -11.2374    3.9556   14.8284 C   0  0  0  0  0  0  0  0  0  0  0  0
  -12.3722    4.7482   14.7503 C   0  0  0  0  0  0  0  0  0  0  0  0
  -13.5917    4.2122   14.4103 C   0  0  0  0  0  0  0  0  0  0  0  0
  -13.6779    2.8664   14.1449 C   0  0  0  0  0  0  0  0  0  0  0  0
  -12.5376    2.1022   14.2293 C   0  0  0  0  0  0  0  0  0  0  0  0
  -15.0338    5.2277   14.3126 Cl  0  0  0  0  0  0  0  0  0  0  0  0
   -9.9469    0.9223   13.3630 C   0  0  0  0  0  0  0  0  0  0  0  0
  -10.2578   -0.2930   13.3288 O   0  0  0  0  0  0  0  0  0  0  0  0
   -9.4173    1.5216   12.2020 N   0  0  0  0  0  0  0  0  0  0  0  0
   -9.2520    2.9327   12.1342 C   0  0  0  0  0  0  0  0  0  0  0  0
   -8.2832    3.4002   11.0893 C   0  0  0  0  0  0  0  0  0  0  0  0
   -8.3286    2.6100    9.8141 C   0  0  0  0  0  0  0  0  0  0  0  0
   -9.3446    1.4963    9.8357 C   0  0  0  0  0  0  0  0  0  0  0  0
   -9.0477    0.6781   11.0886 C   0  0  0  0  0  0  0  0  0  0  0  0
   -7.0651    2.0251    9.5567 O   0  0  0  0  0  0  0  0  0  0  0  0
   -6.6801    2.2235    8.2421 C   0  0  0  0  0  0  0  0  0  0  0  0
   -5.6358    1.7083    7.4863 C   0  0  0  0  0  0  0  0  0  0  0  0
   -5.4823    2.0856    6.1668 C   0  0  0  0  0  0  0  0  0  0  0  0
   -6.3828    2.9885    5.5946 C   0  0  0  0  0  0  0  0  0  0  0  0
   -7.4076    3.4794    6.3754 C   0  0  0  0  0  0  0  0  0  0  0  0
   -7.5751    3.1134    7.6936 C   0  0  0  0  0  0  0  0  0  0  0  0
   -8.4932    3.4467    8.6770 O   0  0  0  0  0  0  0  0  0  0  0  0
  1  2  1  0
  2  3  1  0
  2  4  1  0
  4  5  1  0
  5  6  2  0
  6  7  1  0
  7  8  2  0
  8  9  1  0
  9 10  2  0
  8 11  1  0
  4 12  1  0
 12 13  2  0
 12 14  1  0
 14 15  1  0
 15 16  1  0
 16 17  1  0
 17 18  1  0
 18 19  1  0
 17 20  1  0
 20 21  1  0
 21 22  2  0
 22 23  1  0
 23 24  2  0
 24 25  1  0
 25 26  2  0
 26 27  1  0
 10  5  1  0
 19 14  1  0
 27 17  1  0
 26 21  1  0
M  END
$$$$
