
     RDKit          3D

 27 30  0  0  0  0  0  0  0  0999 V2000
   -2.2395    2.2665    4.6698 C   0  0  0  0  0  0  0  0  0  0  0  0
   -1.4884    1.8557    5.9028 C   0  0  0  0  0  0  0  0  0  0  0  0
   -0.1855    2.6123    6.0585 C   0  0  0  0  0  0  0  0  0  0  0  0
   -2.2935    1.8677    7.1634 C   0  0  0  0  0  0  0  0  0  0  0  0
   -1.4375    1.3696    8.2640 C   0  0  0  0  0  0  0  0  0  0  0  0
   -0.9413    2.1667    9.2734 C   0  0  0  0  0  0  0  0  0  0  0  0
   -0.1520    1.6239   10.2754 C   0  0  0  0  0  0  0  0  0  0  0  0
    0.1563    0.2841   10.2904 C   0  0  0  0  0  0  0  0  0  0  0  0
   -0.3310   -0.5234    9.2906 C   0  0  0  0  0  0  0  0  0  0  0  0
   -1.1117    0.0396    8.3084 C   0  0  0  0  0  0  0  0  0  0  0  0
    1.1627   -0.4012   11.5702 Cl  0  0  0  0  0  0  0  0  0  0  0  0
   -3.5814    1.1391    7.0487 C   0  0  0  0  0  0  0  0  0  0  0  0
   -3.6642    0.1496    6.2814 O   0  0  0  0  0  0  0  0  0  0  0  0
   -4.7212    1.5289    7.7812 N   0  0  0  0  0  0  0  0  0  0  0  0
   -4.6676    2.6568    8.6459 C   0  0  0  0  0  0  0  0  0  0  0  0
   -6.0035    3.2423    8.9949 C   0  0  0  0  0  0  0  0  0  0  0  0
   -7.0863    2.2224    9.1943 C   0  0  0  0  0  0  0  0  0  0  0  0
   -6.6148    0.8032    9.0032 C   0  0  0  0  0  0  0  0  0  0  0  0
   -5.9382    0.7635    7.6364 C   0  0  0  0  0  0  0  0  0  0  0  0
   -8.1416    2.4448    8.2768 O   0  0  0  0  0  0  0  0  0  0  0  0
   -9.3721    2.4021    8.9091 C   0  0  0  0  0  0  0  0  0  0  0  0
  -10.6725    2.3903    8.4233 C   0  0  0  0  0  0  0  0  0  0  0  0
  -11.7398    2.3438    9.2985 C   0  0  0  0  0  0  0  0  0  0  0  0
  -11.5057    2.3087   10.6761 C   0  0  0  0  0  0  0  0  0  0  0  0
  -10.2013    2.3218   11.1222 C   0  0  0  0  0  0  0  0  0  0  0  0
   -9.1248    2.3680   10.2625 C   0  0  0  0  0  0  0  0  0  0  0  0
   -7.7504    2.3902   10.4397 O   0  0  0  0  0  0  0  0  0  0  0  0
  1  2  1  0
  2  3  1  0
  2  4  1  0
  4  5  1  0
  5  6  2  0
  6  7  1  0
  7  8  2  0
  8  9  1  0
  9 10  2  0
  8 11  1  0
  4 12  1  0
 12 13  2  0
 12 14  1  0
 14 15  1  0
 15 16  1  0
 16 17  1  0
 17 18  1  0
 18 19  1  0
 17 20  1  0
 20 21  1  0
 21 22  2  0
 22 23  1  0
 23 24  2  0
 24 25  1  0
 25 26  2  0
 26 27  1  0
 10  5  1  0
 19 14  1  0
 27 17  1  0
 26 21  1  0
M  END
$$$$
