
     RDKit          3D

 27 30  0  0  0  0  0  0  0  0999 V2000
    1.7359    1.3486    9.6748 C   0  0  0  0  0  0  0  0  0  0  0  0
    1.1415    0.4032    8.6716 C   0  0  0  0  0  0  0  0  0  0  0  0
    2.1030   -0.7022    8.2868 C   0  0  0  0  0  0  0  0  0  0  0  0
   -0.2071   -0.1327    9.0341 C   0  0  0  0  0  0  0  0  0  0  0  0
   -0.0632   -0.9636   10.2510 C   0  0  0  0  0  0  0  0  0  0  0  0
    0.5022   -2.2208   10.2614 C   0  0  0  0  0  0  0  0  0  0  0  0
    0.6093   -2.9347   11.4450 C   0  0  0  0  0  0  0  0  0  0  0  0
    0.1574   -2.4124   12.6337 C   0  0  0  0  0  0  0  0  0  0  0  0
   -0.4089   -1.1600   12.6393 C   0  0  0  0  0  0  0  0  0  0  0  0
   -0.5033   -0.4725   11.4520 C   0  0  0  0  0  0  0  0  0  0  0  0
    0.2969   -3.3274   14.1383 Cl  0  0  0  0  0  0  0  0  0  0  0  0
   -0.8803   -0.8422    7.9178 C   0  0  0  0  0  0  0  0  0  0  0  0
   -1.0206   -2.0880    7.9740 O   0  0  0  0  0  0  0  0  0  0  0  0
   -1.3695   -0.1530    6.7894 N   0  0  0  0  0  0  0  0  0  0  0  0
   -1.5230   -0.8281    5.5469 C   0  0  0  0  0  0  0  0  0  0  0  0
   -2.4556   -0.1590    4.5818 C   0  0  0  0  0  0  0  0  0  0  0  0
   -2.3759    1.3397    4.5915 C   0  0  0  0  0  0  0  0  0  0  0  0
   -1.3687    1.8793    5.5750 C   0  0  0  0  0  0  0  0  0  0  0  0
   -1.7100    1.2451    6.9199 C   0  0  0  0  0  0  0  0  0  0  0  0
   -3.6348    1.8936    4.9283 O   0  0  0  0  0  0  0  0  0  0  0  0
   -3.9774    2.9197    4.0648 C   0  0  0  0  0  0  0  0  0  0  0  0
   -5.0011    3.8570    4.0870 C   0  0  0  0  0  0  0  0  0  0  0  0
   -5.1110    4.7886    3.0735 C   0  0  0  0  0  0  0  0  0  0  0  0
   -4.1870    4.7843    2.0247 C   0  0  0  0  0  0  0  0  0  0  0  0
   -3.1837    3.8388    2.0359 C   0  0  0  0  0  0  0  0  0  0  0  0
   -3.0597    2.9021    3.0394 C   0  0  0  0  0  0  0  0  0  0  0  0
   -2.1705    1.8685    3.2883 O   0  0  0  0  0  0  0  0  0  0  0  0
  1  2  1  0
  2  3  1  0
  2  4  1  0
  4  5  1  0
  5  6  2  0
  6  7  1  0
  7  8  2  0
  8  9  1  0
  9 10  2  0
  8 11  1  0
  4 12  1  0
 12 13  2  0
 12 14  1  0
 14 15  1  0
 15 16  1  0
 16 17  1  0
 17 18  1  0
 18 19  1  0
 17 20  1  0
 20 21  1  0
 21 22  2  0
 22 23  1  0
 23 24  2  0
 24 25  1  0
 25 26  2  0
 26 27  1  0
 10  5  1  0
 19 14  1  0
 27 17  1  0
 26 21  1  0
M  END
$$$$
