
     RDKit          3D

 27 30  0  0  0  0  0  0  0  0999 V2000
  -11.1643    1.2326    8.5060 C   0  0  0  0  0  0  0  0  0  0  0  0
  -10.9780    2.3650    9.4737 C   0  0  0  0  0  0  0  0  0  0  0  0
  -12.2414    2.6659   10.2532 C   0  0  0  0  0  0  0  0  0  0  0  0
   -9.7874    2.2372   10.3702 C   0  0  0  0  0  0  0  0  0  0  0  0
  -10.2665    2.1760   11.7698 C   0  0  0  0  0  0  0  0  0  0  0  0
   -9.9241    1.1778   12.6569 C   0  0  0  0  0  0  0  0  0  0  0  0
  -10.4074    1.1946   13.9561 C   0  0  0  0  0  0  0  0  0  0  0  0
  -11.2365    2.2003   14.3934 C   0  0  0  0  0  0  0  0  0  0  0  0
  -11.5869    3.2025   13.5205 C   0  0  0  0  0  0  0  0  0  0  0  0
  -11.0940    3.1628   12.2372 C   0  0  0  0  0  0  0  0  0  0  0  0
  -11.8489    2.2156   16.0502 Cl  0  0  0  0  0  0  0  0  0  0  0  0
   -8.7648    3.2894   10.1477 C   0  0  0  0  0  0  0  0  0  0  0  0
   -9.0708    4.4939   10.3220 O   0  0  0  0  0  0  0  0  0  0  0  0
   -7.4516    2.9731    9.7436 N   0  0  0  0  0  0  0  0  0  0  0  0
   -6.6782    3.9175    9.0135 C   0  0  0  0  0  0  0  0  0  0  0  0
   -5.1988    3.6742    9.0461 C   0  0  0  0  0  0  0  0  0  0  0  0
   -4.8150    2.2241    8.9961 C   0  0  0  0  0  0  0  0  0  0  0  0
   -5.9989    1.2935    8.9227 C   0  0  0  0  0  0  0  0  0  0  0  0
   -6.9104    1.6775   10.0842 C   0  0  0  0  0  0  0  0  0  0  0  0
   -4.0734    1.8750   10.1508 O   0  0  0  0  0  0  0  0  0  0  0  0
   -2.9421    1.1501    9.8189 C   0  0  0  0  0  0  0  0  0  0  0  0
   -2.0184    0.4554   10.5879 C   0  0  0  0  0  0  0  0  0  0  0  0
   -0.9601   -0.1937    9.9831 C   0  0  0  0  0  0  0  0  0  0  0  0
   -0.8223   -0.1485    8.5928 C   0  0  0  0  0  0  0  0  0  0  0  0
   -1.7585    0.5509    7.8614 C   0  0  0  0  0  0  0  0  0  0  0  0
   -2.8205    1.2041    8.4491 C   0  0  0  0  0  0  0  0  0  0  0  0
   -3.8760    1.9592    7.9625 O   0  0  0  0  0  0  0  0  0  0  0  0
  1  2  1  0
  2  3  1  0
  2  4  1  0
  4  5  1  0
  5  6  2  0
  6  7  1  0
  7  8  2  0
  8  9  1  0
  9 10  2  0
  8 11  1  0
  4 12  1  0
 12 13  2  0
 12 14  1  0
 14 15  1  0
 15 16  1  0
 16 17  1  0
 17 18  1  0
 18 19  1  0
 17 20  1  0
 20 21  1  0
 21 22  2  0
 22 23  1  0
 23 24  2  0
 24 25  1  0
 25 26  2  0
 26 27  1  0
 10  5  1  0
 19 14  1  0
 27 17  1  0
 26 21  1  0
M  END
$$$$
