
     RDKit          3D

 27 30  0  0  0  0  0  0  0  0999 V2000
   -5.8740   -2.4320    6.6186 C   0  0  0  0  0  0  0  0  0  0  0  0
   -5.0299   -1.9557    7.7650 C   0  0  0  0  0  0  0  0  0  0  0  0
   -4.9084   -2.9971    8.8582 C   0  0  0  0  0  0  0  0  0  0  0  0
   -3.6974   -1.3981    7.3763 C   0  0  0  0  0  0  0  0  0  0  0  0
   -2.9276   -1.1342    8.6130 C   0  0  0  0  0  0  0  0  0  0  0  0
   -2.0218   -2.0186    9.1587 C   0  0  0  0  0  0  0  0  0  0  0  0
   -1.3322   -1.6951   10.3169 C   0  0  0  0  0  0  0  0  0  0  0  0
   -1.5311   -0.4910   10.9499 C   0  0  0  0  0  0  0  0  0  0  0  0
   -2.4312    0.4013   10.4181 C   0  0  0  0  0  0  0  0  0  0  0  0
   -3.1023    0.0563    9.2683 C   0  0  0  0  0  0  0  0  0  0  0  0
   -0.6491   -0.0850   12.4256 Cl  0  0  0  0  0  0  0  0  0  0  0  0
   -3.7894   -0.2176    6.4816 C   0  0  0  0  0  0  0  0  0  0  0  0
   -4.4780   -0.2889    5.4349 O   0  0  0  0  0  0  0  0  0  0  0  0
   -3.1213    0.9887    6.7752 N   0  0  0  0  0  0  0  0  0  0  0  0
   -1.9365    0.9800    7.5620 C   0  0  0  0  0  0  0  0  0  0  0  0
   -1.0823    2.2045    7.4212 C   0  0  0  0  0  0  0  0  0  0  0  0
   -1.8591    3.4817    7.2885 C   0  0  0  0  0  0  0  0  0  0  0  0
   -3.3529    3.2803    7.3231 C   0  0  0  0  0  0  0  0  0  0  0  0
   -3.6617    2.2272    6.2634 C   0  0  0  0  0  0  0  0  0  0  0  0
   -1.5464    4.1186    6.0632 O   0  0  0  0  0  0  0  0  0  0  0  0
   -1.2950    5.4669    6.2497 C   0  0  0  0  0  0  0  0  0  0  0  0
   -1.1201    6.5169    5.3585 C   0  0  0  0  0  0  0  0  0  0  0  0
   -0.8765    7.7924    5.8283 C   0  0  0  0  0  0  0  0  0  0  0  0
   -0.8066    8.0225    7.2052 C   0  0  0  0  0  0  0  0  0  0  0  0
   -0.9853    6.9559    8.0603 C   0  0  0  0  0  0  0  0  0  0  0  0
   -1.2292    5.6769    7.6082 C   0  0  0  0  0  0  0  0  0  0  0  0
   -1.4405    4.4579    8.2330 O   0  0  0  0  0  0  0  0  0  0  0  0
  1  2  1  0
  2  3  1  0
  2  4  1  0
  4  5  1  0
  5  6  2  0
  6  7  1  0
  7  8  2  0
  8  9  1  0
  9 10  2  0
  8 11  1  0
  4 12  1  0
 12 13  2  0
 12 14  1  0
 14 15  1  0
 15 16  1  0
 16 17  1  0
 17 18  1  0
 18 19  1  0
 17 20  1  0
 20 21  1  0
 21 22  2  0
 22 23  1  0
 23 24  2  0
 24 25  1  0
 25 26  2  0
 26 27  1  0
 10  5  1  0
 19 14  1  0
 27 17  1  0
 26 21  1  0
M  END
$$$$
