
     RDKit          3D

 27 30  0  0  0  0  0  0  0  0999 V2000
  -12.3258    2.3835   11.2976 C   0  0  0  0  0  0  0  0  0  0  0  0
  -12.0842    2.0703   12.7457 C   0  0  0  0  0  0  0  0  0  0  0  0
  -12.9244    0.9057   13.2277 C   0  0  0  0  0  0  0  0  0  0  0  0
  -10.6456    1.9135   13.1241 C   0  0  0  0  0  0  0  0  0  0  0  0
  -10.5680    1.7591   14.5945 C   0  0  0  0  0  0  0  0  0  0  0  0
  -11.3329    2.4818   15.4852 C   0  0  0  0  0  0  0  0  0  0  0  0
  -11.2088    2.2738   16.8501 C   0  0  0  0  0  0  0  0  0  0  0  0
  -10.3250    1.3472   17.3507 C   0  0  0  0  0  0  0  0  0  0  0  0
   -9.5553    0.6190   16.4752 C   0  0  0  0  0  0  0  0  0  0  0  0
   -9.6976    0.8442   15.1260 C   0  0  0  0  0  0  0  0  0  0  0  0
  -10.1717    1.0871   19.0911 Cl  0  0  0  0  0  0  0  0  0  0  0  0
   -9.7763    2.9977   12.6033 C   0  0  0  0  0  0  0  0  0  0  0  0
   -9.9495    4.1740   13.0049 O   0  0  0  0  0  0  0  0  0  0  0  0
   -8.7555    2.7430   11.6648 N   0  0  0  0  0  0  0  0  0  0  0  0
   -8.4194    3.7198   10.6870 C   0  0  0  0  0  0  0  0  0  0  0  0
   -7.0628    3.5482   10.0711 C   0  0  0  0  0  0  0  0  0  0  0  0
   -6.6729    2.1181    9.8361 C   0  0  0  0  0  0  0  0  0  0  0  0
   -7.7277    1.1312   10.2681 C   0  0  0  0  0  0  0  0  0  0  0  0
   -8.0615    1.4767   11.7160 C   0  0  0  0  0  0  0  0  0  0  0  0
   -5.4888    1.8112   10.5493 O   0  0  0  0  0  0  0  0  0  0  0  0
   -4.5816    1.1399    9.7480 C   0  0  0  0  0  0  0  0  0  0  0  0
   -3.3851    0.4945   10.0292 C   0  0  0  0  0  0  0  0  0  0  0  0
   -2.6655   -0.1059    9.0149 C   0  0  0  0  0  0  0  0  0  0  0  0
   -3.1466   -0.0614    7.7033 C   0  0  0  0  0  0  0  0  0  0  0  0
   -4.3383    0.5883    7.4615 C   0  0  0  0  0  0  0  0  0  0  0  0
   -5.0689    1.1926    8.4620 C   0  0  0  0  0  0  0  0  0  0  0  0
   -6.2642    1.8934    8.4935 O   0  0  0  0  0  0  0  0  0  0  0  0
  1  2  1  0
  2  3  1  0
  2  4  1  0
  4  5  1  0
  5  6  2  0
  6  7  1  0
  7  8  2  0
  8  9  1  0
  9 10  2  0
  8 11  1  0
  4 12  1  0
 12 13  2  0
 12 14  1  0
 14 15  1  0
 15 16  1  0
 16 17  1  0
 17 18  1  0
 18 19  1  0
 17 20  1  0
 20 21  1  0
 21 22  2  0
 22 23  1  0
 23 24  2  0
 24 25  1  0
 25 26  2  0
 26 27  1  0
 10  5  1  0
 19 14  1  0
 27 17  1  0
 26 21  1  0
M  END
$$$$
