
     RDKit          3D

 27 30  0  0  0  0  0  0  0  0999 V2000
  -10.3981   -1.2104   10.6227 C   0  0  0  0  0  0  0  0  0  0  0  0
  -10.2637    0.0489   11.4287 C   0  0  0  0  0  0  0  0  0  0  0  0
  -10.9198   -0.0689   12.7888 C   0  0  0  0  0  0  0  0  0  0  0  0
   -8.8718    0.5879   11.5264 C   0  0  0  0  0  0  0  0  0  0  0  0
   -8.3745    0.3390   12.8985 C   0  0  0  0  0  0  0  0  0  0  0  0
   -7.5247   -0.6936   13.2331 C   0  0  0  0  0  0  0  0  0  0  0  0
   -7.0954   -0.8563   14.5412 C   0  0  0  0  0  0  0  0  0  0  0  0
   -7.5027    0.0019   15.5351 C   0  0  0  0  0  0  0  0  0  0  0  0
   -8.3501    1.0362   15.2171 C   0  0  0  0  0  0  0  0  0  0  0  0
   -8.7612    1.1758   13.9121 C   0  0  0  0  0  0  0  0  0  0  0  0
   -6.9521   -0.2112   17.1999 Cl  0  0  0  0  0  0  0  0  0  0  0  0
   -8.7579    2.0083   11.1118 C   0  0  0  0  0  0  0  0  0  0  0  0
   -9.7184    2.7897   11.3166 O   0  0  0  0  0  0  0  0  0  0  0  0
   -7.5951    2.5083   10.4908 N   0  0  0  0  0  0  0  0  0  0  0  0
   -7.6432    3.7191    9.7461 C   0  0  0  0  0  0  0  0  0  0  0  0
   -6.3128    4.3790    9.5374 C   0  0  0  0  0  0  0  0  0  0  0  0
   -5.1840    3.4198    9.2962 C   0  0  0  0  0  0  0  0  0  0  0  0
   -5.6128    1.9745    9.3115 C   0  0  0  0  0  0  0  0  0  0  0  0
   -6.3605    1.7698   10.6254 C   0  0  0  0  0  0  0  0  0  0  0  0
   -4.1888    3.5765   10.2912 O   0  0  0  0  0  0  0  0  0  0  0  0
   -2.9252    3.6387    9.7299 C   0  0  0  0  0  0  0  0  0  0  0  0
   -1.6535    3.6157   10.2861 C   0  0  0  0  0  0  0  0  0  0  0  0
   -0.5393    3.6949    9.4740 C   0  0  0  0  0  0  0  0  0  0  0  0
   -0.6970    3.7983    8.0890 C   0  0  0  0  0  0  0  0  0  0  0  0
   -1.9749    3.8182    7.5721 C   0  0  0  0  0  0  0  0  0  0  0  0
   -3.0973    3.7402    8.3683 C   0  0  0  0  0  0  0  0  0  0  0  0
   -4.4601    3.7386    8.1153 O   0  0  0  0  0  0  0  0  0  0  0  0
  1  2  1  0
  2  3  1  0
  2  4  1  0
  4  5  1  0
  5  6  2  0
  6  7  1  0
  7  8  2  0
  8  9  1  0
  9 10  2  0
  8 11  1  0
  4 12  1  0
 12 13  2  0
 12 14  1  0
 14 15  1  0
 15 16  1  0
 16 17  1  0
 17 18  1  0
 18 19  1  0
 17 20  1  0
 20 21  1  0
 21 22  2  0
 22 23  1  0
 23 24  2  0
 24 25  1  0
 25 26  2  0
 26 27  1  0
 10  5  1  0
 19 14  1  0
 27 17  1  0
 26 21  1  0
M  END
$$$$
