
     RDKit          3D

 27 30  0  0  0  0  0  0  0  0999 V2000
  -10.1260    2.2471    6.9748 C   0  0  0  0  0  0  0  0  0  0  0  0
  -10.2687    2.3972    8.4616 C   0  0  0  0  0  0  0  0  0  0  0  0
  -11.6310    1.9543    8.9539 C   0  0  0  0  0  0  0  0  0  0  0  0
   -9.1620    1.7906    9.2645 C   0  0  0  0  0  0  0  0  0  0  0  0
   -9.6455    1.6024   10.6511 C   0  0  0  0  0  0  0  0  0  0  0  0
  -10.4826    0.5790   11.0416 C   0  0  0  0  0  0  0  0  0  0  0  0
  -10.8856    0.4647   12.3630 C   0  0  0  0  0  0  0  0  0  0  0  0
  -10.4648    1.3629   13.3150 C   0  0  0  0  0  0  0  0  0  0  0  0
   -9.6301    2.3888   12.9410 C   0  0  0  0  0  0  0  0  0  0  0  0
   -9.2448    2.4800   11.6240 C   0  0  0  0  0  0  0  0  0  0  0  0
  -10.9822    1.2114   14.9972 Cl  0  0  0  0  0  0  0  0  0  0  0  0
   -7.8902    2.5515    9.1868 C   0  0  0  0  0  0  0  0  0  0  0  0
   -7.9150    3.7629    8.8604 O   0  0  0  0  0  0  0  0  0  0  0  0
   -6.6475    1.9491    9.4708 N   0  0  0  0  0  0  0  0  0  0  0  0
   -6.5870    0.5909    9.8887 C   0  0  0  0  0  0  0  0  0  0  0  0
   -5.2473   -0.0595    9.7123 C   0  0  0  0  0  0  0  0  0  0  0  0
   -4.0845    0.8442   10.0019 C   0  0  0  0  0  0  0  0  0  0  0  0
   -4.4952    2.2347   10.4150 C   0  0  0  0  0  0  0  0  0  0  0  0
   -5.4433    2.7351    9.3295 C   0  0  0  0  0  0  0  0  0  0  0  0
   -3.2649    0.9686    8.8539 O   0  0  0  0  0  0  0  0  0  0  0  0
   -1.9279    0.8079    9.1736 C   0  0  0  0  0  0  0  0  0  0  0  0
   -0.7626    1.0062    8.4456 C   0  0  0  0  0  0  0  0  0  0  0  0
    0.4672    0.7626    9.0247 C   0  0  0  0  0  0  0  0  0  0  0  0
    0.5344    0.3154   10.3472 C   0  0  0  0  0  0  0  0  0  0  0  0
   -0.6433    0.1296   11.0394 C   0  0  0  0  0  0  0  0  0  0  0  0
   -1.8788    0.3679   10.4767 C   0  0  0  0  0  0  0  0  0  0  0  0
   -3.1826    0.2655   10.9356 O   0  0  0  0  0  0  0  0  0  0  0  0
  1  2  1  0
  2  3  1  0
  2  4  1  0
  4  5  1  0
  5  6  2  0
  6  7  1  0
  7  8  2  0
  8  9  1  0
  9 10  2  0
  8 11  1  0
  4 12  1  0
 12 13  2  0
 12 14  1  0
 14 15  1  0
 15 16  1  0
 16 17  1  0
 17 18  1  0
 18 19  1  0
 17 20  1  0
 20 21  1  0
 21 22  2  0
 22 23  1  0
 23 24  2  0
 24 25  1  0
 25 26  2  0
 26 27  1  0
 10  5  1  0
 19 14  1  0
 27 17  1  0
 26 21  1  0
M  END
$$$$
