
     RDKit          3D

 27 30  0  0  0  0  0  0  0  0999 V2000
  -10.4049    1.4200    7.5426 C   0  0  0  0  0  0  0  0  0  0  0  0
  -10.3578    1.6464    9.0258 C   0  0  0  0  0  0  0  0  0  0  0  0
  -11.2852    0.7138    9.7772 C   0  0  0  0  0  0  0  0  0  0  0  0
   -8.9838    1.6610    9.6169 C   0  0  0  0  0  0  0  0  0  0  0  0
   -9.1029    1.9846   11.0567 C   0  0  0  0  0  0  0  0  0  0  0  0
   -8.5320    1.2353   12.0632 C   0  0  0  0  0  0  0  0  0  0  0  0
   -8.6814    1.6084   13.3899 C   0  0  0  0  0  0  0  0  0  0  0  0
   -9.3987    2.7288   13.7369 C   0  0  0  0  0  0  0  0  0  0  0  0
   -9.9739    3.4861   12.7446 C   0  0  0  0  0  0  0  0  0  0  0  0
   -9.8108    3.0945   11.4364 C   0  0  0  0  0  0  0  0  0  0  0  0
   -9.5853    3.1986   15.4295 Cl  0  0  0  0  0  0  0  0  0  0  0  0
   -8.0393    2.5487    8.8941 C   0  0  0  0  0  0  0  0  0  0  0  0
   -8.4704    3.5911    8.3443 O   0  0  0  0  0  0  0  0  0  0  0  0
   -6.6636    2.2530    8.8068 N   0  0  0  0  0  0  0  0  0  0  0  0
   -5.8122    3.0362    7.9794 C   0  0  0  0  0  0  0  0  0  0  0  0
   -4.3533    2.9397    8.3129 C   0  0  0  0  0  0  0  0  0  0  0  0
   -3.9080    1.5664    8.7232 C   0  0  0  0  0  0  0  0  0  0  0  0
   -5.0214    0.5498    8.7192 C   0  0  0  0  0  0  0  0  0  0  0  0
   -6.1390    1.1443    9.5706 C   0  0  0  0  0  0  0  0  0  0  0  0
   -3.3691    1.5985   10.0323 O   0  0  0  0  0  0  0  0  0  0  0  0
   -2.1683    0.9132   10.0962 C   0  0  0  0  0  0  0  0  0  0  0  0
   -1.3679    0.5278   11.1630 C   0  0  0  0  0  0  0  0  0  0  0  0
   -0.1937   -0.1626   10.9356 C   0  0  0  0  0  0  0  0  0  0  0  0
    0.1862   -0.4721    9.6266 C   0  0  0  0  0  0  0  0  0  0  0  0
   -0.6334   -0.0734    8.5921 C   0  0  0  0  0  0  0  0  0  0  0  0
   -1.8083    0.6162    8.8015 C   0  0  0  0  0  0  0  0  0  0  0  0
   -2.7908    1.1223    7.9651 O   0  0  0  0  0  0  0  0  0  0  0  0
  1  2  1  0
  2  3  1  0
  2  4  1  0
  4  5  1  0
  5  6  2  0
  6  7  1  0
  7  8  2  0
  8  9  1  0
  9 10  2  0
  8 11  1  0
  4 12  1  0
 12 13  2  0
 12 14  1  0
 14 15  1  0
 15 16  1  0
 16 17  1  0
 17 18  1  0
 18 19  1  0
 17 20  1  0
 20 21  1  0
 21 22  2  0
 22 23  1  0
 23 24  2  0
 24 25  1  0
 25 26  2  0
 26 27  1  0
 10  5  1  0
 19 14  1  0
 27 17  1  0
 26 21  1  0
M  END
$$$$
