
     RDKit          3D

 27 30  0  0  0  0  0  0  0  0999 V2000
    1.2188    0.4699    5.7746 C   0  0  0  0  0  0  0  0  0  0  0  0
    0.2155    0.0663    6.8158 C   0  0  0  0  0  0  0  0  0  0  0  0
    0.7339   -1.0389    7.7125 C   0  0  0  0  0  0  0  0  0  0  0  0
   -0.3631    1.1981    7.6043 C   0  0  0  0  0  0  0  0  0  0  0  0
   -1.0758    0.6318    8.7719 C   0  0  0  0  0  0  0  0  0  0  0  0
   -0.6720    0.8067   10.0784 C   0  0  0  0  0  0  0  0  0  0  0  0
   -1.3984    0.2510   11.1201 C   0  0  0  0  0  0  0  0  0  0  0  0
   -2.5345   -0.4855   10.8811 C   0  0  0  0  0  0  0  0  0  0  0  0
   -2.9497   -0.6688    9.5838 C   0  0  0  0  0  0  0  0  0  0  0  0
   -2.2115   -0.1070    8.5685 C   0  0  0  0  0  0  0  0  0  0  0  0
   -3.4555   -1.1910   12.2132 Cl  0  0  0  0  0  0  0  0  0  0  0  0
   -1.2040    2.1136    6.7936 C   0  0  0  0  0  0  0  0  0  0  0  0
   -1.3558    3.3028    7.1645 O   0  0  0  0  0  0  0  0  0  0  0  0
   -1.8413    1.6834    5.6118 N   0  0  0  0  0  0  0  0  0  0  0  0
   -1.7709    0.3196    5.2140 C   0  0  0  0  0  0  0  0  0  0  0  0
   -2.8317   -0.1048    4.2427 C   0  0  0  0  0  0  0  0  0  0  0  0
   -3.1760    0.9360    3.2177 C   0  0  0  0  0  0  0  0  0  0  0  0
   -2.3832    2.2096    3.3680 C   0  0  0  0  0  0  0  0  0  0  0  0
   -2.5632    2.6505    4.8174 C   0  0  0  0  0  0  0  0  0  0  0  0
   -4.5470    1.2777    3.3100 O   0  0  0  0  0  0  0  0  0  0  0  0
   -5.1441    1.2938    2.0614 C   0  0  0  0  0  0  0  0  0  0  0  0
   -6.3900    1.7252    1.6269 C   0  0  0  0  0  0  0  0  0  0  0  0
   -6.7338    1.6218    0.2934 C   0  0  0  0  0  0  0  0  0  0  0  0
   -5.8222    1.0809   -0.6177 C   0  0  0  0  0  0  0  0  0  0  0  0
   -4.5944    0.6630   -0.1502 C   0  0  0  0  0  0  0  0  0  0  0  0
   -4.2353    0.7590    1.1771 C   0  0  0  0  0  0  0  0  0  0  0  0
   -3.0977    0.4237    1.8943 O   0  0  0  0  0  0  0  0  0  0  0  0
  1  2  1  0
  2  3  1  0
  2  4  1  0
  4  5  1  0
  5  6  2  0
  6  7  1  0
  7  8  2  0
  8  9  1  0
  9 10  2  0
  8 11  1  0
  4 12  1  0
 12 13  2  0
 12 14  1  0
 14 15  1  0
 15 16  1  0
 16 17  1  0
 17 18  1  0
 18 19  1  0
 17 20  1  0
 20 21  1  0
 21 22  2  0
 22 23  1  0
 23 24  2  0
 24 25  1  0
 25 26  2  0
 26 27  1  0
 10  5  1  0
 19 14  1  0
 27 17  1  0
 26 21  1  0
M  END
$$$$
