
     RDKit          3D

 27 30  0  0  0  0  0  0  0  0999 V2000
   -9.5107    1.3665   13.5433 C   0  0  0  0  0  0  0  0  0  0  0  0
   -9.2297    0.6850   12.2356 C   0  0  0  0  0  0  0  0  0  0  0  0
  -10.3146   -0.3031   11.8600 C   0  0  0  0  0  0  0  0  0  0  0  0
   -8.8991    1.6059   11.1043 C   0  0  0  0  0  0  0  0  0  0  0  0
  -10.1581    1.9527   10.4067 C   0  0  0  0  0  0  0  0  0  0  0  0
  -11.0994    2.8264   10.9076 C   0  0  0  0  0  0  0  0  0  0  0  0
  -12.2516    3.1073   10.1896 C   0  0  0  0  0  0  0  0  0  0  0  0
  -12.4864    2.5260    8.9661 C   0  0  0  0  0  0  0  0  0  0  0  0
  -11.5572    1.6525    8.4536 C   0  0  0  0  0  0  0  0  0  0  0  0
  -10.4226    1.3908    9.1854 C   0  0  0  0  0  0  0  0  0  0  0  0
  -13.9567    2.8882    8.0565 Cl  0  0  0  0  0  0  0  0  0  0  0  0
   -7.8543    1.0731   10.1949 C   0  0  0  0  0  0  0  0  0  0  0  0
   -7.8258   -0.1555    9.9406 O   0  0  0  0  0  0  0  0  0  0  0  0
   -6.8870    1.9122    9.6049 N   0  0  0  0  0  0  0  0  0  0  0  0
   -7.1028    3.3162    9.5327 C   0  0  0  0  0  0  0  0  0  0  0  0
   -5.8606    4.1308    9.3269 C   0  0  0  0  0  0  0  0  0  0  0  0
   -4.8595    3.4993    8.4041 C   0  0  0  0  0  0  0  0  0  0  0  0
   -5.3027    2.1635    7.8636 C   0  0  0  0  0  0  0  0  0  0  0  0
   -5.6788    1.3202    9.0781 C   0  0  0  0  0  0  0  0  0  0  0  0
   -3.6322    3.2959    9.0804 O   0  0  0  0  0  0  0  0  0  0  0  0
   -2.5621    3.7293    8.3170 C   0  0  0  0  0  0  0  0  0  0  0  0
   -1.1892    3.5897    8.4678 C   0  0  0  0  0  0  0  0  0  0  0  0
   -0.3296    4.1347    7.5345 C   0  0  0  0  0  0  0  0  0  0  0  0
   -0.8473    4.8279    6.4367 C   0  0  0  0  0  0  0  0  0  0  0  0
   -2.2158    4.9466    6.3195 C   0  0  0  0  0  0  0  0  0  0  0  0
   -3.0877    4.4088    7.2418 C   0  0  0  0  0  0  0  0  0  0  0  0
   -4.4682    4.3823    7.3614 O   0  0  0  0  0  0  0  0  0  0  0  0
  1  2  1  0
  2  3  1  0
  2  4  1  0
  4  5  1  0
  5  6  2  0
  6  7  1  0
  7  8  2  0
  8  9  1  0
  9 10  2  0
  8 11  1  0
  4 12  1  0
 12 13  2  0
 12 14  1  0
 14 15  1  0
 15 16  1  0
 16 17  1  0
 17 18  1  0
 18 19  1  0
 17 20  1  0
 20 21  1  0
 21 22  2  0
 22 23  1  0
 23 24  2  0
 24 25  1  0
 25 26  2  0
 26 27  1  0
 10  5  1  0
 19 14  1  0
 27 17  1  0
 26 21  1  0
M  END
$$$$
