
     RDKit          3D

 27 30  0  0  0  0  0  0  0  0999 V2000
   -1.8265    4.6438    5.8163 C   0  0  0  0  0  0  0  0  0  0  0  0
   -2.4889    3.3465    5.4531 C   0  0  0  0  0  0  0  0  0  0  0  0
   -2.2532    2.9688    4.0053 C   0  0  0  0  0  0  0  0  0  0  0  0
   -2.1966    2.2096    6.3802 C   0  0  0  0  0  0  0  0  0  0  0  0
   -1.2257    1.3098    5.7172 C   0  0  0  0  0  0  0  0  0  0  0  0
   -1.5144    0.5564    4.5993 C   0  0  0  0  0  0  0  0  0  0  0  0
   -0.5474   -0.2576    4.0300 C   0  0  0  0  0  0  0  0  0  0  0  0
    0.7184   -0.3361    4.5609 C   0  0  0  0  0  0  0  0  0  0  0  0
    1.0213    0.4089    5.6755 C   0  0  0  0  0  0  0  0  0  0  0  0
    0.0444    1.2085    6.2210 C   0  0  0  0  0  0  0  0  0  0  0  0
    1.9459   -1.3755    3.8306 Cl  0  0  0  0  0  0  0  0  0  0  0  0
   -3.4143    1.5073    6.8559 C   0  0  0  0  0  0  0  0  0  0  0  0
   -4.3555    1.2925    6.0541 O   0  0  0  0  0  0  0  0  0  0  0  0
   -3.5452    1.0719    8.1904 N   0  0  0  0  0  0  0  0  0  0  0  0
   -4.8335    0.8403    8.7469 C   0  0  0  0  0  0  0  0  0  0  0  0
   -4.8417   -0.0364    9.9635 C   0  0  0  0  0  0  0  0  0  0  0  0
   -3.6788    0.1847   10.8861 C   0  0  0  0  0  0  0  0  0  0  0  0
   -2.7269    1.2502   10.4049 C   0  0  0  0  0  0  0  0  0  0  0  0
   -2.3507    0.8667    8.9770 C   0  0  0  0  0  0  0  0  0  0  0  0
   -2.9361   -1.0121   11.0312 O   0  0  0  0  0  0  0  0  0  0  0  0
   -2.6516   -1.2665   12.3617 C   0  0  0  0  0  0  0  0  0  0  0  0
   -1.8270   -2.1967   12.9796 C   0  0  0  0  0  0  0  0  0  0  0  0
   -1.7286   -2.2301   14.3567 C   0  0  0  0  0  0  0  0  0  0  0  0
   -2.4627   -1.3234   15.1265 C   0  0  0  0  0  0  0  0  0  0  0  0
   -3.2711   -0.4139   14.4785 C   0  0  0  0  0  0  0  0  0  0  0  0
   -3.3809   -0.3669   13.1053 C   0  0  0  0  0  0  0  0  0  0  0  0
   -4.0998    0.4236   12.2225 O   0  0  0  0  0  0  0  0  0  0  0  0
  1  2  1  0
  2  3  1  0
  2  4  1  0
  4  5  1  0
  5  6  2  0
  6  7  1  0
  7  8  2  0
  8  9  1  0
  9 10  2  0
  8 11  1  0
  4 12  1  0
 12 13  2  0
 12 14  1  0
 14 15  1  0
 15 16  1  0
 16 17  1  0
 17 18  1  0
 18 19  1  0
 17 20  1  0
 20 21  1  0
 21 22  2  0
 22 23  1  0
 23 24  2  0
 24 25  1  0
 25 26  2  0
 26 27  1  0
 10  5  1  0
 19 14  1  0
 27 17  1  0
 26 21  1  0
M  END
$$$$
