
     RDKit          3D

 27 30  0  0  0  0  0  0  0  0999 V2000
   -2.9044    4.0186    7.0428 C   0  0  0  0  0  0  0  0  0  0  0  0
   -3.5396    3.0604    8.0082 C   0  0  0  0  0  0  0  0  0  0  0  0
   -5.0437    3.2263    8.0737 C   0  0  0  0  0  0  0  0  0  0  0  0
   -3.1444    1.6292    7.8262 C   0  0  0  0  0  0  0  0  0  0  0  0
   -3.2904    0.9397    9.1282 C   0  0  0  0  0  0  0  0  0  0  0  0
   -3.0182    1.5280   10.3448 C   0  0  0  0  0  0  0  0  0  0  0  0
   -3.1878    0.8183   11.5235 C   0  0  0  0  0  0  0  0  0  0  0  0
   -3.6293   -0.4837   11.5123 C   0  0  0  0  0  0  0  0  0  0  0  0
   -3.9047   -1.0840   10.3069 C   0  0  0  0  0  0  0  0  0  0  0  0
   -3.7283   -0.3583    9.1521 C   0  0  0  0  0  0  0  0  0  0  0  0
   -3.8432   -1.3824   13.0179 Cl  0  0  0  0  0  0  0  0  0  0  0  0
   -1.7993    1.4600    7.2224 C   0  0  0  0  0  0  0  0  0  0  0  0
   -0.7803    1.5630    7.9475 O   0  0  0  0  0  0  0  0  0  0  0  0
   -1.6322    1.1854    5.8497 N   0  0  0  0  0  0  0  0  0  0  0  0
   -0.3291    1.1274    5.2827 C   0  0  0  0  0  0  0  0  0  0  0  0
   -0.2459    0.3923    3.9782 C   0  0  0  0  0  0  0  0  0  0  0  0
   -1.4242    0.6118    3.0749 C   0  0  0  0  0  0  0  0  0  0  0  0
   -2.4643    1.5328    3.6606 C   0  0  0  0  0  0  0  0  0  0  0  0
   -2.8051    0.9652    5.0350 C   0  0  0  0  0  0  0  0  0  0  0  0
   -2.0609   -0.6214    2.7943 O   0  0  0  0  0  0  0  0  0  0  0  0
   -2.3232   -0.7529    1.4416 C   0  0  0  0  0  0  0  0  0  0  0  0
   -3.0648   -1.6777    0.7192 C   0  0  0  0  0  0  0  0  0  0  0  0
   -3.1609   -1.5693   -0.6542 C   0  0  0  0  0  0  0  0  0  0  0  0
   -2.5083   -0.5244   -1.3146 C   0  0  0  0  0  0  0  0  0  0  0  0
   -1.7811    0.3752   -0.5646 C   0  0  0  0  0  0  0  0  0  0  0  0
   -1.6749    0.2816    0.8065 C   0  0  0  0  0  0  0  0  0  0  0  0
   -1.0264    1.0301    1.7761 O   0  0  0  0  0  0  0  0  0  0  0  0
  1  2  1  0
  2  3  1  0
  2  4  1  0
  4  5  1  0
  5  6  2  0
  6  7  1  0
  7  8  2  0
  8  9  1  0
  9 10  2  0
  8 11  1  0
  4 12  1  0
 12 13  2  0
 12 14  1  0
 14 15  1  0
 15 16  1  0
 16 17  1  0
 17 18  1  0
 18 19  1  0
 17 20  1  0
 20 21  1  0
 21 22  2  0
 22 23  1  0
 23 24  2  0
 24 25  1  0
 25 26  2  0
 26 27  1  0
 10  5  1  0
 19 14  1  0
 27 17  1  0
 26 21  1  0
M  END
$$$$
