
     RDKit          3D

 41 44  0  0  0  0  0  0  0  0999 V2000
    4.8085    4.3351   18.5581 C   0  0  0  0  0  0  0  0  0  0  0  0
    4.4748    3.0547   17.9075 C   0  0  0  0  0  0  0  0  0  0  0  0
    3.2152    3.2528   17.2313 O   0  0  0  0  0  0  0  0  0  0  0  0
    3.2463    4.1794   16.1694 C   0  0  0  0  0  0  0  0  0  0  0  0
    2.5143    4.0029   15.0358 C   0  0  0  0  0  0  0  0  0  0  0  0
    2.6046    4.9707   14.0293 C   0  0  0  0  0  0  0  0  0  0  0  0
    3.4117    6.0620   14.1950 C   0  0  0  0  0  0  0  0  0  0  0  0
    4.1474    6.2084   15.3752 C   0  0  0  0  0  0  0  0  0  0  0  0
    4.0948    5.2826   16.3997 C   0  0  0  0  0  0  0  0  0  0  0  0
    4.8289    5.4157   17.6006 N   0  0  0  0  0  0  0  0  0  0  0  0
    5.5511    6.6414   17.8658 C   0  0  0  0  0  0  0  0  0  0  0  0
    6.6947    6.3678   18.8379 C   0  0  0  0  0  0  0  0  0  0  0  0
    6.2060    6.3172   20.2515 C   0  0  0  0  0  0  0  0  0  0  0  0
    7.2034    5.8477   21.2187 C   0  0  0  0  0  0  0  0  0  0  0  0
    7.9705    4.9061   20.8822 O   0  0  0  0  0  0  0  0  0  0  0  0
    7.3722    6.3644   22.4914 O   0  0  0  0  0  0  0  0  0  0  0  0
    1.6452    2.9008   14.8127 N   0  0  0  0  0  0  0  0  0  0  0  0
    0.6648    2.7971   13.8277 C   0  0  0  0  0  0  0  0  0  0  0  0
    0.7356    3.6119   12.8597 O   0  0  0  0  0  0  0  0  0  0  0  0
   -0.3842    1.8076   13.9155 C   0  0  0  0  0  0  0  0  0  0  0  0
   -1.2769    1.6954   12.8719 C   0  0  0  0  0  0  0  0  0  0  0  0
   -2.3453    0.7904   12.9129 C   0  0  0  0  0  0  0  0  0  0  0  0
   -2.5315   -0.0157   13.9987 C   0  0  0  0  0  0  0  0  0  0  0  0
   -1.6309    0.0900   15.0577 C   0  0  0  0  0  0  0  0  0  0  0  0
   -0.5753    0.9970   15.0006 C   0  0  0  0  0  0  0  0  0  0  0  0
   -3.5463   -0.9126   14.0960 O   0  0  0  0  0  0  0  0  0  0  0  0
   -3.6589   -1.8459   15.1424 C   0  0  0  0  0  0  0  0  0  0  0  0
   -4.8755   -2.6813   15.0305 C   0  0  0  0  0  0  0  0  0  0  0  0
   -5.0577   -3.4133   13.7721 C   0  0  0  0  0  0  0  0  0  0  0  0
   -4.7202   -4.8091   13.5560 C   0  0  0  0  0  0  0  0  0  0  0  0
   -3.6243   -5.1626   12.6612 C   0  0  0  0  0  0  0  0  0  0  0  0
   -3.5217   -4.7846   11.3333 C   0  0  0  0  0  0  0  0  0  0  0  0
   -2.4493   -5.1317   10.5599 C   0  0  0  0  0  0  0  0  0  0  0  0
   -1.4311   -5.8846   11.1130 C   0  0  0  0  0  0  0  0  0  0  0  0
   -1.4798   -6.2913   12.4326 C   0  0  0  0  0  0  0  0  0  0  0  0
   -2.5683   -5.9220   13.1672 C   0  0  0  0  0  0  0  0  0  0  0  0
   -0.4678   -7.0293   12.9563 F   0  0  0  0  0  0  0  0  0  0  0  0
   -4.8335   -3.8438   10.6478 Cl  0  0  0  0  0  0  0  0  0  0  0  0
    4.3357    1.9102   18.8249 C   0  0  0  0  0  0  0  0  0  0  0  0
    3.7286    0.8939   18.3846 O   0  0  0  0  0  0  0  0  0  0  0  0
    4.8432    1.9193   20.1287 O   0  0  0  0  0  0  0  0  0  0  0  0
  1  2  1  0
  2  3  1  0
  3  4  1  0
  4  5  2  0
  5  6  1  0
  6  7  2  0
  7  8  1  0
  8  9  2  0
  9 10  1  0
 10 11  1  0
 11 12  1  0
 12 13  1  0
 13 14  1  0
 14 15  2  0
 14 16  1  0
  5 17  1  0
 17 18  1  0
 18 19  2  0
 18 20  1  0
 20 21  2  0
 21 22  1  0
 22 23  2  0
 23 24  1  0
 24 25  2  0
 23 26  1  0
 26 27  1  0
 27 28  1  0
 28 29  1  0
 29 30  1  0
 30 31  1  0
 31 32  2  0
 32 33  1  0
 33 34  2  0
 34 35  1  0
 35 36  2  0
 35 37  1  0
 32 38  1  0
  2 39  1  0
 39 40  2  0
 39 41  1  0
 10  1  1  0
  9  4  1  0
 25 20  1  0
 36 31  1  0
M  END
$$$$
