
     RDKit          3D

 41 44  0  0  0  0  0  0  0  0999 V2000
    1.2650    8.2665   14.9769 C   0  0  0  0  0  0  0  0  0  0  0  0
    1.2413    6.8390   15.3452 C   0  0  0  0  0  0  0  0  0  0  0  0
    0.7248    6.1274   14.2007 O   0  0  0  0  0  0  0  0  0  0  0  0
    1.5402    6.1717   13.0515 C   0  0  0  0  0  0  0  0  0  0  0  0
    1.6640    5.1072   12.2128 C   0  0  0  0  0  0  0  0  0  0  0  0
    2.4958    5.2354   11.0949 C   0  0  0  0  0  0  0  0  0  0  0  0
    3.1607    6.4076   10.8633 C   0  0  0  0  0  0  0  0  0  0  0  0
    3.0065    7.4796   11.7480 C   0  0  0  0  0  0  0  0  0  0  0  0
    2.1981    7.4058   12.8663 C   0  0  0  0  0  0  0  0  0  0  0  0
    2.0279    8.4800   13.7696 N   0  0  0  0  0  0  0  0  0  0  0  0
    2.5837    9.7777   13.4514 C   0  0  0  0  0  0  0  0  0  0  0  0
    3.9102    9.9652   14.1812 C   0  0  0  0  0  0  0  0  0  0  0  0
    3.7157   10.6612   15.4918 C   0  0  0  0  0  0  0  0  0  0  0  0
    4.6706   11.7445   15.7476 C   0  0  0  0  0  0  0  0  0  0  0  0
    5.7937   11.4524   16.2393 O   0  0  0  0  0  0  0  0  0  0  0  0
    4.4331   13.0829   15.4881 O   0  0  0  0  0  0  0  0  0  0  0  0
    0.9859    3.8709   12.3899 N   0  0  0  0  0  0  0  0  0  0  0  0
    1.5434    2.5956   12.3198 C   0  0  0  0  0  0  0  0  0  0  0  0
    2.7649    2.5208   11.9907 O   0  0  0  0  0  0  0  0  0  0  0  0
    0.7576    1.4172   12.6047 C   0  0  0  0  0  0  0  0  0  0  0  0
   -0.0872    1.4327   13.6932 C   0  0  0  0  0  0  0  0  0  0  0  0
   -0.8415    0.3089   14.0539 C   0  0  0  0  0  0  0  0  0  0  0  0
   -0.7613   -0.8439   13.3272 C   0  0  0  0  0  0  0  0  0  0  0  0
    0.0893   -0.8667   12.2228 C   0  0  0  0  0  0  0  0  0  0  0  0
    0.8335    0.2597   11.8799 C   0  0  0  0  0  0  0  0  0  0  0  0
   -1.4680   -1.9642   13.6261 O   0  0  0  0  0  0  0  0  0  0  0  0
   -1.0814   -3.2555   13.2238 C   0  0  0  0  0  0  0  0  0  0  0  0
   -2.2298   -4.1819   13.1063 C   0  0  0  0  0  0  0  0  0  0  0  0
   -3.1963   -3.8997   12.0391 C   0  0  0  0  0  0  0  0  0  0  0  0
   -3.8129   -4.8947   11.1797 C   0  0  0  0  0  0  0  0  0  0  0  0
   -4.9086   -5.7138   11.6849 C   0  0  0  0  0  0  0  0  0  0  0  0
   -6.2419   -5.3415   11.7069 C   0  0  0  0  0  0  0  0  0  0  0  0
   -7.2210   -6.1742   12.1724 C   0  0  0  0  0  0  0  0  0  0  0  0
   -6.8778   -7.4290   12.6383 C   0  0  0  0  0  0  0  0  0  0  0  0
   -5.5632   -7.8543   12.6414 C   0  0  0  0  0  0  0  0  0  0  0  0
   -4.6192   -6.9910   12.1677 C   0  0  0  0  0  0  0  0  0  0  0  0
   -5.2481   -9.0917   13.1024 F   0  0  0  0  0  0  0  0  0  0  0  0
   -6.6523   -3.7384   11.1263 Cl  0  0  0  0  0  0  0  0  0  0  0  0
    0.4036    6.5132   16.5127 C   0  0  0  0  0  0  0  0  0  0  0  0
    0.6010    7.1846   17.5642 O   0  0  0  0  0  0  0  0  0  0  0  0
   -0.5737    5.5123   16.4874 O   0  0  0  0  0  0  0  0  0  0  0  0
  1  2  1  0
  2  3  1  0
  3  4  1  0
  4  5  2  0
  5  6  1  0
  6  7  2  0
  7  8  1  0
  8  9  2  0
  9 10  1  0
 10 11  1  0
 11 12  1  0
 12 13  1  0
 13 14  1  0
 14 15  2  0
 14 16  1  0
  5 17  1  0
 17 18  1  0
 18 19  2  0
 18 20  1  0
 20 21  2  0
 21 22  1  0
 22 23  2  0
 23 24  1  0
 24 25  2  0
 23 26  1  0
 26 27  1  0
 27 28  1  0
 28 29  1  0
 29 30  1  0
 30 31  1  0
 31 32  2  0
 32 33  1  0
 33 34  2  0
 34 35  1  0
 35 36  2  0
 35 37  1  0
 32 38  1  0
  2 39  1  0
 39 40  2  0
 39 41  1  0
 10  1  1  0
  9  4  1  0
 25 20  1  0
 36 31  1  0
M  END
$$$$
