
     RDKit          3D

 41 44  0  0  0  0  0  0  0  0999 V2000
    4.5114    2.6884   18.4024 C   0  0  0  0  0  0  0  0  0  0  0  0
    3.8915    1.8734   17.3415 C   0  0  0  0  0  0  0  0  0  0  0  0
    3.0264    2.7566   16.5967 O   0  0  0  0  0  0  0  0  0  0  0  0
    3.6850    3.7878   15.8966 C   0  0  0  0  0  0  0  0  0  0  0  0
    3.2617    4.2164   14.6763 C   0  0  0  0  0  0  0  0  0  0  0  0
    3.9743    5.2445   14.0493 C   0  0  0  0  0  0  0  0  0  0  0  0
    5.0663    5.7960   14.6601 C   0  0  0  0  0  0  0  0  0  0  0  0
    5.4693    5.3291   15.9152 C   0  0  0  0  0  0  0  0  0  0  0  0
    4.8017    4.3166   16.5774 C   0  0  0  0  0  0  0  0  0  0  0  0
    5.1927    3.8342   17.8475 N   0  0  0  0  0  0  0  0  0  0  0  0
    6.2355    4.5172   18.5825 C   0  0  0  0  0  0  0  0  0  0  0  0
    5.7083    5.8468   19.1132 C   0  0  0  0  0  0  0  0  0  0  0  0
    4.8285    5.6450   20.3070 C   0  0  0  0  0  0  0  0  0  0  0  0
    5.0736    6.5873   21.4037 C   0  0  0  0  0  0  0  0  0  0  0  0
    6.2611    6.9330   21.6453 O   0  0  0  0  0  0  0  0  0  0  0  0
    4.0892    7.1357   22.2072 O   0  0  0  0  0  0  0  0  0  0  0  0
    2.1254    3.6960   13.9997 N   0  0  0  0  0  0  0  0  0  0  0  0
    2.1263    2.9161   12.8448 C   0  0  0  0  0  0  0  0  0  0  0  0
    3.2233    2.8212   12.2174 O   0  0  0  0  0  0  0  0  0  0  0  0
    0.9267    2.2540   12.3865 C   0  0  0  0  0  0  0  0  0  0  0  0
   -0.2499    2.4687   13.0707 C   0  0  0  0  0  0  0  0  0  0  0  0
   -1.4386    1.8217   12.7092 C   0  0  0  0  0  0  0  0  0  0  0  0
   -1.4644    0.9537   11.6560 C   0  0  0  0  0  0  0  0  0  0  0  0
   -0.2784    0.7331   10.9570 C   0  0  0  0  0  0  0  0  0  0  0  0
    0.8949    1.3837   11.3318 C   0  0  0  0  0  0  0  0  0  0  0  0
   -2.5849    0.2985   11.2572 O   0  0  0  0  0  0  0  0  0  0  0  0
   -2.8517   -0.0372    9.9176 C   0  0  0  0  0  0  0  0  0  0  0  0
   -3.7246   -1.2260    9.7925 C   0  0  0  0  0  0  0  0  0  0  0  0
   -3.4614   -2.3356   10.7156 C   0  0  0  0  0  0  0  0  0  0  0  0
   -4.4730   -3.0777   11.4468 C   0  0  0  0  0  0  0  0  0  0  0  0
   -4.0994   -4.2705   12.1981 C   0  0  0  0  0  0  0  0  0  0  0  0
   -2.8639   -4.8931   12.1485 C   0  0  0  0  0  0  0  0  0  0  0  0
   -2.5753   -5.9959   12.9030 C   0  0  0  0  0  0  0  0  0  0  0  0
   -3.5422   -6.5128   13.7441 C   0  0  0  0  0  0  0  0  0  0  0  0
   -4.7935   -5.9338   13.8341 C   0  0  0  0  0  0  0  0  0  0  0  0
   -5.0376   -4.8350   13.0636 C   0  0  0  0  0  0  0  0  0  0  0  0
   -5.7284   -6.4571   14.6680 F   0  0  0  0  0  0  0  0  0  0  0  0
   -1.6577   -4.2299   11.0618 Cl  0  0  0  0  0  0  0  0  0  0  0  0
    3.0907    0.7338   17.8223 C   0  0  0  0  0  0  0  0  0  0  0  0
    2.0733    0.4216   17.1423 O   0  0  0  0  0  0  0  0  0  0  0  0
    3.4181    0.0115   18.9750 O   0  0  0  0  0  0  0  0  0  0  0  0
  1  2  1  0
  2  3  1  0
  3  4  1  0
  4  5  2  0
  5  6  1  0
  6  7  2  0
  7  8  1  0
  8  9  2  0
  9 10  1  0
 10 11  1  0
 11 12  1  0
 12 13  1  0
 13 14  1  0
 14 15  2  0
 14 16  1  0
  5 17  1  0
 17 18  1  0
 18 19  2  0
 18 20  1  0
 20 21  2  0
 21 22  1  0
 22 23  2  0
 23 24  1  0
 24 25  2  0
 23 26  1  0
 26 27  1  0
 27 28  1  0
 28 29  1  0
 29 30  1  0
 30 31  1  0
 31 32  2  0
 32 33  1  0
 33 34  2  0
 34 35  1  0
 35 36  2  0
 35 37  1  0
 32 38  1  0
  2 39  1  0
 39 40  2  0
 39 41  1  0
 10  1  1  0
  9  4  1  0
 25 20  1  0
 36 31  1  0
M  END
$$$$
