
     RDKit          3D

 41 44  0  0  0  0  0  0  0  0999 V2000
    2.8373    7.4836   15.6314 C   0  0  0  0  0  0  0  0  0  0  0  0
    3.0618    6.1965   14.9480 C   0  0  0  0  0  0  0  0  0  0  0  0
    1.8343    5.4470   15.0688 O   0  0  0  0  0  0  0  0  0  0  0  0
    0.7261    6.0030   14.3979 C   0  0  0  0  0  0  0  0  0  0  0  0
   -0.2085    5.2282   13.7828 C   0  0  0  0  0  0  0  0  0  0  0  0
   -1.2767    5.8616   13.1382 C   0  0  0  0  0  0  0  0  0  0  0  0
   -1.3668    7.2260   13.1353 C   0  0  0  0  0  0  0  0  0  0  0  0
   -0.3869    7.9877   13.7798 C   0  0  0  0  0  0  0  0  0  0  0  0
    0.6880    7.4128   14.4307 C   0  0  0  0  0  0  0  0  0  0  0  0
    1.6860    8.1666   15.0899 N   0  0  0  0  0  0  0  0  0  0  0  0
    1.5182    9.5956   15.2450 C   0  0  0  0  0  0  0  0  0  0  0  0
    0.5850    9.8824   16.4174 C   0  0  0  0  0  0  0  0  0  0  0  0
    1.2391    9.5595   17.7242 C   0  0  0  0  0  0  0  0  0  0  0  0
    2.1568   10.5942   18.2120 C   0  0  0  0  0  0  0  0  0  0  0  0
    1.9014   11.7990   17.9444 O   0  0  0  0  0  0  0  0  0  0  0  0
    3.2988   10.3494   18.9543 O   0  0  0  0  0  0  0  0  0  0  0  0
   -0.1794    3.8075   13.7667 N   0  0  0  0  0  0  0  0  0  0  0  0
   -1.1338    2.9594   13.2078 C   0  0  0  0  0  0  0  0  0  0  0  0
   -2.2610    3.4677   12.9307 O   0  0  0  0  0  0  0  0  0  0  0  0
   -0.8461    1.5648   12.9638 C   0  0  0  0  0  0  0  0  0  0  0  0
    0.3834    1.0676   13.3377 C   0  0  0  0  0  0  0  0  0  0  0  0
    0.7451   -0.2623   13.0876 C   0  0  0  0  0  0  0  0  0  0  0  0
   -0.1212   -1.1120   12.4623 C   0  0  0  0  0  0  0  0  0  0  0  0
   -1.3683   -0.6171   12.0832 C   0  0  0  0  0  0  0  0  0  0  0  0
   -1.7103    0.7089   12.3382 C   0  0  0  0  0  0  0  0  0  0  0  0
    0.1713   -2.4105   12.1941 O   0  0  0  0  0  0  0  0  0  0  0  0
    1.3961   -3.0150   12.5301 C   0  0  0  0  0  0  0  0  0  0  0  0
    1.6243   -4.2817   11.7991 C   0  0  0  0  0  0  0  0  0  0  0  0
    0.5628   -5.2910   11.8842 C   0  0  0  0  0  0  0  0  0  0  0  0
    0.6314   -6.6308   11.3283 C   0  0  0  0  0  0  0  0  0  0  0  0
   -0.4413   -7.1176   10.4687 C   0  0  0  0  0  0  0  0  0  0  0  0
   -0.6459   -6.7399    9.1525 C   0  0  0  0  0  0  0  0  0  0  0  0
   -1.6599   -7.2592    8.3969 C   0  0  0  0  0  0  0  0  0  0  0  0
   -2.5131   -8.1907    8.9571 C   0  0  0  0  0  0  0  0  0  0  0  0
   -2.3579   -8.6044   10.2662 C   0  0  0  0  0  0  0  0  0  0  0  0
   -1.3327   -8.0603   10.9830 C   0  0  0  0  0  0  0  0  0  0  0  0
   -3.2067   -9.5217   10.7964 F   0  0  0  0  0  0  0  0  0  0  0  0
    0.4388   -5.5441    8.4675 Cl  0  0  0  0  0  0  0  0  0  0  0  0
    4.1597    5.3838   15.5003 C   0  0  0  0  0  0  0  0  0  0  0  0
    5.2579    5.9716   15.7095 O   0  0  0  0  0  0  0  0  0  0  0  0
    4.0215    4.0222   15.7905 O   0  0  0  0  0  0  0  0  0  0  0  0
  1  2  1  0
  2  3  1  0
  3  4  1  0
  4  5  2  0
  5  6  1  0
  6  7  2  0
  7  8  1  0
  8  9  2  0
  9 10  1  0
 10 11  1  0
 11 12  1  0
 12 13  1  0
 13 14  1  0
 14 15  2  0
 14 16  1  0
  5 17  1  0
 17 18  1  0
 18 19  2  0
 18 20  1  0
 20 21  2  0
 21 22  1  0
 22 23  2  0
 23 24  1  0
 24 25  2  0
 23 26  1  0
 26 27  1  0
 27 28  1  0
 28 29  1  0
 29 30  1  0
 30 31  1  0
 31 32  2  0
 32 33  1  0
 33 34  2  0
 34 35  1  0
 35 36  2  0
 35 37  1  0
 32 38  1  0
  2 39  1  0
 39 40  2  0
 39 41  1  0
 10  1  1  0
  9  4  1  0
 25 20  1  0
 36 31  1  0
M  END
$$$$
