
     RDKit          3D

 41 44  0  0  0  0  0  0  0  0999 V2000
    5.6110    1.4301   19.7457 C   0  0  0  0  0  0  0  0  0  0  0  0
    4.2308    1.3121   19.2405 C   0  0  0  0  0  0  0  0  0  0  0  0
    4.3321    0.9290   17.8527 O   0  0  0  0  0  0  0  0  0  0  0  0
    4.8914   -0.3446   17.6236 C   0  0  0  0  0  0  0  0  0  0  0  0
    4.4516   -1.1569   16.6243 C   0  0  0  0  0  0  0  0  0  0  0  0
    5.0613   -2.4065   16.4671 C   0  0  0  0  0  0  0  0  0  0  0  0
    6.0733   -2.7881   17.3037 C   0  0  0  0  0  0  0  0  0  0  0  0
    6.4981   -1.9243   18.3182 C   0  0  0  0  0  0  0  0  0  0  0  0
    5.9303   -0.6803   18.5169 C   0  0  0  0  0  0  0  0  0  0  0  0
    6.3488    0.2070   19.5349 N   0  0  0  0  0  0  0  0  0  0  0  0
    7.5261   -0.1049   20.3167 C   0  0  0  0  0  0  0  0  0  0  0  0
    8.7354    0.6294   19.7458 C   0  0  0  0  0  0  0  0  0  0  0  0
    8.3213    1.8527   18.9896 C   0  0  0  0  0  0  0  0  0  0  0  0
    9.1848    3.0179   19.2069 C   0  0  0  0  0  0  0  0  0  0  0  0
    8.6731    4.1674   19.1349 O   0  0  0  0  0  0  0  0  0  0  0  0
   10.5382    2.9550   19.4890 O   0  0  0  0  0  0  0  0  0  0  0  0
    3.4179   -0.8099   15.7128 N   0  0  0  0  0  0  0  0  0  0  0  0
    2.3198   -1.5918   15.3591 C   0  0  0  0  0  0  0  0  0  0  0  0
    2.4100   -2.8377   15.5727 O   0  0  0  0  0  0  0  0  0  0  0  0
    1.1387   -1.0031   14.7712 C   0  0  0  0  0  0  0  0  0  0  0  0
    0.0994   -1.8304   14.4050 C   0  0  0  0  0  0  0  0  0  0  0  0
   -1.0542   -1.3313   13.7867 C   0  0  0  0  0  0  0  0  0  0  0  0
   -1.1826    0.0033   13.5299 C   0  0  0  0  0  0  0  0  0  0  0  0
   -0.1364    0.8473   13.8999 C   0  0  0  0  0  0  0  0  0  0  0  0
    1.0043    0.3332   14.5121 C   0  0  0  0  0  0  0  0  0  0  0  0
   -2.2760    0.5462   12.9353 O   0  0  0  0  0  0  0  0  0  0  0  0
   -3.4093   -0.2008   12.5662 C   0  0  0  0  0  0  0  0  0  0  0  0
   -4.6562    0.5951   12.6178 C   0  0  0  0  0  0  0  0  0  0  0  0
   -5.5726    0.3113   13.7279 C   0  0  0  0  0  0  0  0  0  0  0  0
   -5.4363    0.8212   15.0808 C   0  0  0  0  0  0  0  0  0  0  0  0
   -6.6262    1.1320   15.8644 C   0  0  0  0  0  0  0  0  0  0  0  0
   -7.2255    2.3772   15.9499 C   0  0  0  0  0  0  0  0  0  0  0  0
   -8.3581    2.5894   16.6853 C   0  0  0  0  0  0  0  0  0  0  0  0
   -8.9292    1.5331   17.3690 C   0  0  0  0  0  0  0  0  0  0  0  0
   -8.3746    0.2685   17.3213 C   0  0  0  0  0  0  0  0  0  0  0  0
   -7.2449    0.1024   16.5751 C   0  0  0  0  0  0  0  0  0  0  0  0
   -8.9529   -0.7555   17.9996 F   0  0  0  0  0  0  0  0  0  0  0  0
   -6.4739    3.7066   15.0875 Cl  0  0  0  0  0  0  0  0  0  0  0  0
    3.4312    2.5467   19.3255 C   0  0  0  0  0  0  0  0  0  0  0  0
    3.2628    3.0418   20.4752 O   0  0  0  0  0  0  0  0  0  0  0  0
    2.8724    3.1654   18.2019 O   0  0  0  0  0  0  0  0  0  0  0  0
  1  2  1  0
  2  3  1  0
  3  4  1  0
  4  5  2  0
  5  6  1  0
  6  7  2  0
  7  8  1  0
  8  9  2  0
  9 10  1  0
 10 11  1  0
 11 12  1  0
 12 13  1  0
 13 14  1  0
 14 15  2  0
 14 16  1  0
  5 17  1  0
 17 18  1  0
 18 19  2  0
 18 20  1  0
 20 21  2  0
 21 22  1  0
 22 23  2  0
 23 24  1  0
 24 25  2  0
 23 26  1  0
 26 27  1  0
 27 28  1  0
 28 29  1  0
 29 30  1  0
 30 31  1  0
 31 32  2  0
 32 33  1  0
 33 34  2  0
 34 35  1  0
 35 36  2  0
 35 37  1  0
 32 38  1  0
  2 39  1  0
 39 40  2  0
 39 41  1  0
 10  1  1  0
  9  4  1  0
 25 20  1  0
 36 31  1  0
M  END
$$$$
