
     RDKit          3D

 41 44  0  0  0  0  0  0  0  0999 V2000
   -1.7830   -4.3357   15.1052 C   0  0  0  0  0  0  0  0  0  0  0  0
   -1.8062   -2.8763   15.3135 C   0  0  0  0  0  0  0  0  0  0  0  0
   -1.0936   -2.2908   14.2033 O   0  0  0  0  0  0  0  0  0  0  0  0
   -1.7011   -2.4673   12.9434 C   0  0  0  0  0  0  0  0  0  0  0  0
   -1.6676   -1.5024   11.9844 C   0  0  0  0  0  0  0  0  0  0  0  0
   -2.2975   -1.7588   10.7616 C   0  0  0  0  0  0  0  0  0  0  0  0
   -2.9264   -2.9544   10.5494 C   0  0  0  0  0  0  0  0  0  0  0  0
   -2.9380   -3.9215   11.5595 C   0  0  0  0  0  0  0  0  0  0  0  0
   -2.3318   -3.7192   12.7847 C   0  0  0  0  0  0  0  0  0  0  0  0
   -2.3307   -4.6863   13.8159 N   0  0  0  0  0  0  0  0  0  0  0  0
   -2.8387   -6.0152   13.5513 C   0  0  0  0  0  0  0  0  0  0  0  0
   -1.7092   -6.9107   13.0515 C   0  0  0  0  0  0  0  0  0  0  0  0
   -1.6783   -6.9628   11.5561 C   0  0  0  0  0  0  0  0  0  0  0  0
   -0.5215   -7.6727   11.0006 C   0  0  0  0  0  0  0  0  0  0  0  0
   -0.4407   -8.9185   11.1736 O   0  0  0  0  0  0  0  0  0  0  0  0
    0.5046   -7.0744   10.2905 O   0  0  0  0  0  0  0  0  0  0  0  0
   -1.0157   -0.2490   12.1385 N   0  0  0  0  0  0  0  0  0  0  0  0
   -0.2793    0.4333   11.1717 C   0  0  0  0  0  0  0  0  0  0  0  0
   -0.2489   -0.0732   10.0104 O   0  0  0  0  0  0  0  0  0  0  0  0
    0.4193    1.6578   11.4874 C   0  0  0  0  0  0  0  0  0  0  0  0
    0.3811    2.1262   12.7827 C   0  0  0  0  0  0  0  0  0  0  0  0
    0.9962    3.3307   13.1469 C   0  0  0  0  0  0  0  0  0  0  0  0
    1.6600    4.0801   12.2188 C   0  0  0  0  0  0  0  0  0  0  0  0
    1.7054    3.6116   10.9065 C   0  0  0  0  0  0  0  0  0  0  0  0
    1.0862    2.4124   10.5618 C   0  0  0  0  0  0  0  0  0  0  0  0
    2.2766    5.2540   12.5112 O   0  0  0  0  0  0  0  0  0  0  0  0
    2.3539    5.7869   13.8107 C   0  0  0  0  0  0  0  0  0  0  0  0
    2.9210    7.1539   13.8317 C   0  0  0  0  0  0  0  0  0  0  0  0
    2.3287    8.0974   14.7865 C   0  0  0  0  0  0  0  0  0  0  0  0
    0.9474    8.5454   14.7775 C   0  0  0  0  0  0  0  0  0  0  0  0
    0.6385    9.9554   14.9857 C   0  0  0  0  0  0  0  0  0  0  0  0
   -0.5894   10.4551   15.3850 C   0  0  0  0  0  0  0  0  0  0  0  0
   -0.7994   11.7908   15.5863 C   0  0  0  0  0  0  0  0  0  0  0  0
    0.2414   12.6775   15.3863 C   0  0  0  0  0  0  0  0  0  0  0  0
    1.4883   12.2363   14.9868 C   0  0  0  0  0  0  0  0  0  0  0  0
    1.6529   10.8954   14.7981 C   0  0  0  0  0  0  0  0  0  0  0  0
    2.4973   13.1246   14.7975 F   0  0  0  0  0  0  0  0  0  0  0  0
   -1.9002    9.3132   15.6165 Cl  0  0  0  0  0  0  0  0  0  0  0  0
   -1.1767   -2.4179   16.5644 C   0  0  0  0  0  0  0  0  0  0  0  0
   -0.5035   -1.3506   16.5089 O   0  0  0  0  0  0  0  0  0  0  0  0
   -1.3020   -3.1113   17.7730 O   0  0  0  0  0  0  0  0  0  0  0  0
  1  2  1  0
  2  3  1  0
  3  4  1  0
  4  5  2  0
  5  6  1  0
  6  7  2  0
  7  8  1  0
  8  9  2  0
  9 10  1  0
 10 11  1  0
 11 12  1  0
 12 13  1  0
 13 14  1  0
 14 15  2  0
 14 16  1  0
  5 17  1  0
 17 18  1  0
 18 19  2  0
 18 20  1  0
 20 21  2  0
 21 22  1  0
 22 23  2  0
 23 24  1  0
 24 25  2  0
 23 26  1  0
 26 27  1  0
 27 28  1  0
 28 29  1  0
 29 30  1  0
 30 31  1  0
 31 32  2  0
 32 33  1  0
 33 34  2  0
 34 35  1  0
 35 36  2  0
 35 37  1  0
 32 38  1  0
  2 39  1  0
 39 40  2  0
 39 41  1  0
 10  1  1  0
  9  4  1  0
 25 20  1  0
 36 31  1  0
M  END
$$$$
