
     RDKit          3D

 41 44  0  0  0  0  0  0  0  0999 V2000
    3.2905   -0.1762   19.1387 C   0  0  0  0  0  0  0  0  0  0  0  0
    2.8384   -0.5795   17.7945 C   0  0  0  0  0  0  0  0  0  0  0  0
    1.8165    0.3621   17.4044 O   0  0  0  0  0  0  0  0  0  0  0  0
    2.2606    1.6891   17.2332 C   0  0  0  0  0  0  0  0  0  0  0  0
    1.7594    2.4982   16.2606 C   0  0  0  0  0  0  0  0  0  0  0  0
    2.2571    3.8020   16.1591 C   0  0  0  0  0  0  0  0  0  0  0  0
    3.2225    4.2387   17.0235 C   0  0  0  0  0  0  0  0  0  0  0  0
    3.7114    3.3774   18.0108 C   0  0  0  0  0  0  0  0  0  0  0  0
    3.2547    2.0811   18.1542 C   0  0  0  0  0  0  0  0  0  0  0  0
    3.7349    1.1976   19.1480 N   0  0  0  0  0  0  0  0  0  0  0  0
    4.6267    1.6922   20.1748 C   0  0  0  0  0  0  0  0  0  0  0  0
    5.9749    0.9855   20.0732 C   0  0  0  0  0  0  0  0  0  0  0  0
    6.8597    1.6458   19.0628 C   0  0  0  0  0  0  0  0  0  0  0  0
    8.2838    1.6418   19.4131 C   0  0  0  0  0  0  0  0  0  0  0  0
    9.0193    0.7396   18.9301 O   0  0  0  0  0  0  0  0  0  0  0  0
    8.8940    2.5643   20.2449 O   0  0  0  0  0  0  0  0  0  0  0  0
    0.7443    2.1085   15.3454 N   0  0  0  0  0  0  0  0  0  0  0  0
    0.4009    2.7501   14.1569 C   0  0  0  0  0  0  0  0  0  0  0  0
    1.2152    3.6151   13.7158 O   0  0  0  0  0  0  0  0  0  0  0  0
   -0.8312    2.4425   13.4679 C   0  0  0  0  0  0  0  0  0  0  0  0
   -1.6632    1.4806   13.9980 C   0  0  0  0  0  0  0  0  0  0  0  0
   -2.8489    1.1000   13.3565 C   0  0  0  0  0  0  0  0  0  0  0  0
   -3.2176    1.6803   12.1772 C   0  0  0  0  0  0  0  0  0  0  0  0
   -2.3823    2.6563   11.6356 C   0  0  0  0  0  0  0  0  0  0  0  0
   -1.2059    3.0209   12.2864 C   0  0  0  0  0  0  0  0  0  0  0  0
   -4.3544    1.3550   11.5097 O   0  0  0  0  0  0  0  0  0  0  0  0
   -5.3368    0.4908   12.0262 C   0  0  0  0  0  0  0  0  0  0  0  0
   -5.1996   -0.8931   11.5195 C   0  0  0  0  0  0  0  0  0  0  0  0
   -4.2937   -1.7783   12.2600 C   0  0  0  0  0  0  0  0  0  0  0  0
   -4.3764   -3.2278   12.2925 C   0  0  0  0  0  0  0  0  0  0  0  0
   -3.1680   -4.0214   12.4838 C   0  0  0  0  0  0  0  0  0  0  0  0
   -2.3710   -4.0055   13.6158 C   0  0  0  0  0  0  0  0  0  0  0  0
   -1.2640   -4.7985   13.7359 C   0  0  0  0  0  0  0  0  0  0  0  0
   -0.9218   -5.6452   12.6989 C   0  0  0  0  0  0  0  0  0  0  0  0
   -1.6792   -5.7027   11.5447 C   0  0  0  0  0  0  0  0  0  0  0  0
   -2.7753   -4.8943   11.4681 C   0  0  0  0  0  0  0  0  0  0  0  0
   -1.3258   -6.5427   10.5386 F   0  0  0  0  0  0  0  0  0  0  0  0
   -2.8148   -2.9112   14.9123 Cl  0  0  0  0  0  0  0  0  0  0  0  0
    2.2755   -1.9386   17.7109 C   0  0  0  0  0  0  0  0  0  0  0  0
    2.1618   -2.4413   16.5578 O   0  0  0  0  0  0  0  0  0  0  0  0
    1.8773   -2.6636   18.8393 O   0  0  0  0  0  0  0  0  0  0  0  0
  1  2  1  0
  2  3  1  0
  3  4  1  0
  4  5  2  0
  5  6  1  0
  6  7  2  0
  7  8  1  0
  8  9  2  0
  9 10  1  0
 10 11  1  0
 11 12  1  0
 12 13  1  0
 13 14  1  0
 14 15  2  0
 14 16  1  0
  5 17  1  0
 17 18  1  0
 18 19  2  0
 18 20  1  0
 20 21  2  0
 21 22  1  0
 22 23  2  0
 23 24  1  0
 24 25  2  0
 23 26  1  0
 26 27  1  0
 27 28  1  0
 28 29  1  0
 29 30  1  0
 30 31  1  0
 31 32  2  0
 32 33  1  0
 33 34  2  0
 34 35  1  0
 35 36  2  0
 35 37  1  0
 32 38  1  0
  2 39  1  0
 39 40  2  0
 39 41  1  0
 10  1  1  0
  9  4  1  0
 25 20  1  0
 36 31  1  0
M  END
$$$$
