
     RDKit          3D

 41 44  0  0  0  0  0  0  0  0999 V2000
   -0.7209   -4.0755   13.6131 C   0  0  0  0  0  0  0  0  0  0  0  0
   -0.3179   -2.6738   13.8290 C   0  0  0  0  0  0  0  0  0  0  0  0
   -1.1902   -1.8644   13.0123 O   0  0  0  0  0  0  0  0  0  0  0  0
   -2.5503   -1.8912   13.3822 C   0  0  0  0  0  0  0  0  0  0  0  0
   -3.3433   -0.7886   13.2973 C   0  0  0  0  0  0  0  0  0  0  0  0
   -4.6825   -0.9018   13.6866 C   0  0  0  0  0  0  0  0  0  0  0  0
   -5.1686   -2.0974   14.1381 C   0  0  0  0  0  0  0  0  0  0  0  0
   -4.3223   -3.2084   14.2096 C   0  0  0  0  0  0  0  0  0  0  0  0
   -2.9926   -3.1508   13.8381 C   0  0  0  0  0  0  0  0  0  0  0  0
   -2.1234   -4.2641   13.9007 N   0  0  0  0  0  0  0  0  0  0  0  0
   -2.6577   -5.5728   14.2106 C   0  0  0  0  0  0  0  0  0  0  0  0
   -2.8430   -6.3734   12.9253 C   0  0  0  0  0  0  0  0  0  0  0  0
   -3.7099   -5.6415   11.9493 C   0  0  0  0  0  0  0  0  0  0  0  0
   -4.1323   -6.4441   10.7968 C   0  0  0  0  0  0  0  0  0  0  0  0
   -4.7349   -5.8683    9.8515 O   0  0  0  0  0  0  0  0  0  0  0  0
   -3.9185   -7.8048   10.6624 O   0  0  0  0  0  0  0  0  0  0  0  0
   -2.9015    0.4750   12.8199 N   0  0  0  0  0  0  0  0  0  0  0  0
   -3.1629    1.7201   13.3888 C   0  0  0  0  0  0  0  0  0  0  0  0
   -4.1868    1.8085   14.1303 O   0  0  0  0  0  0  0  0  0  0  0  0
   -2.3052    2.8548   13.1358 C   0  0  0  0  0  0  0  0  0  0  0  0
   -2.6279    4.0679   13.7042 C   0  0  0  0  0  0  0  0  0  0  0  0
   -1.8669    5.2186   13.4618 C   0  0  0  0  0  0  0  0  0  0  0  0
   -0.7711    5.1682   12.6492 C   0  0  0  0  0  0  0  0  0  0  0  0
   -0.4365    3.9439   12.0724 C   0  0  0  0  0  0  0  0  0  0  0  0
   -1.2060    2.8101   12.3230 C   0  0  0  0  0  0  0  0  0  0  0  0
    0.0060    6.2481   12.3779 O   0  0  0  0  0  0  0  0  0  0  0  0
   -0.2885    7.5481   12.8273 C   0  0  0  0  0  0  0  0  0  0  0  0
    0.9272    8.3660   13.0370 C   0  0  0  0  0  0  0  0  0  0  0  0
    2.2152    7.6742   12.9134 C   0  0  0  0  0  0  0  0  0  0  0  0
    3.5155    8.2683   13.1685 C   0  0  0  0  0  0  0  0  0  0  0  0
    4.6589    7.4148   13.4697 C   0  0  0  0  0  0  0  0  0  0  0  0
    5.4052    6.7173   12.5351 C   0  0  0  0  0  0  0  0  0  0  0  0
    6.4835    5.9553   12.8887 C   0  0  0  0  0  0  0  0  0  0  0  0
    6.8468    5.8721   14.2194 C   0  0  0  0  0  0  0  0  0  0  0  0
    6.1385    6.5456   15.1961 C   0  0  0  0  0  0  0  0  0  0  0  0
    5.0700    7.2943   14.7980 C   0  0  0  0  0  0  0  0  0  0  0  0
    6.5135    6.4512   16.4974 F   0  0  0  0  0  0  0  0  0  0  0  0
    4.9159    6.8241   10.8543 Cl  0  0  0  0  0  0  0  0  0  0  0  0
    1.0768   -2.3663   13.4668 C   0  0  0  0  0  0  0  0  0  0  0  0
    1.9806   -3.0049   14.0755 O   0  0  0  0  0  0  0  0  0  0  0  0
    1.4150   -1.4165   12.4967 O   0  0  0  0  0  0  0  0  0  0  0  0
  1  2  1  0
  2  3  1  0
  3  4  1  0
  4  5  2  0
  5  6  1  0
  6  7  2  0
  7  8  1  0
  8  9  2  0
  9 10  1  0
 10 11  1  0
 11 12  1  0
 12 13  1  0
 13 14  1  0
 14 15  2  0
 14 16  1  0
  5 17  1  0
 17 18  1  0
 18 19  2  0
 18 20  1  0
 20 21  2  0
 21 22  1  0
 22 23  2  0
 23 24  1  0
 24 25  2  0
 23 26  1  0
 26 27  1  0
 27 28  1  0
 28 29  1  0
 29 30  1  0
 30 31  1  0
 31 32  2  0
 32 33  1  0
 33 34  2  0
 34 35  1  0
 35 36  2  0
 35 37  1  0
 32 38  1  0
  2 39  1  0
 39 40  2  0
 39 41  1  0
 10  1  1  0
  9  4  1  0
 25 20  1  0
 36 31  1  0
M  END
$$$$
