
     RDKit          3D

 41 44  0  0  0  0  0  0  0  0999 V2000
    4.0084    6.2225   17.2088 C   0  0  0  0  0  0  0  0  0  0  0  0
    4.1136    5.2725   16.0861 C   0  0  0  0  0  0  0  0  0  0  0  0
    2.7637    4.9131   15.7234 O   0  0  0  0  0  0  0  0  0  0  0  0
    1.9824    5.9675   15.2085 C   0  0  0  0  0  0  0  0  0  0  0  0
    1.0769    5.7745   14.2111 C   0  0  0  0  0  0  0  0  0  0  0  0
    0.3435    6.8764   13.7573 C   0  0  0  0  0  0  0  0  0  0  0  0
    0.5417    8.1102   14.3124 C   0  0  0  0  0  0  0  0  0  0  0  0
    1.4808    8.2678   15.3366 C   0  0  0  0  0  0  0  0  0  0  0  0
    2.2312    7.2136   15.8213 C   0  0  0  0  0  0  0  0  0  0  0  0
    3.1823    7.3536   16.8578 N   0  0  0  0  0  0  0  0  0  0  0  0
    3.2833    8.6083   17.5718 C   0  0  0  0  0  0  0  0  0  0  0  0
    4.3280    9.4992   16.9068 C   0  0  0  0  0  0  0  0  0  0  0  0
    3.7019   10.4128   15.9002 C   0  0  0  0  0  0  0  0  0  0  0  0
    4.1490   11.8066   15.9895 C   0  0  0  0  0  0  0  0  0  0  0  0
    4.0009   12.4167   17.0823 O   0  0  0  0  0  0  0  0  0  0  0  0
    4.7297   12.5166   14.9533 O   0  0  0  0  0  0  0  0  0  0  0  0
    0.8134    4.5152   13.6076 N   0  0  0  0  0  0  0  0  0  0  0  0
   -0.3700    4.1178   12.9880 C   0  0  0  0  0  0  0  0  0  0  0  0
   -1.3024    4.9741   12.9291 O   0  0  0  0  0  0  0  0  0  0  0  0
   -0.5219    2.7875   12.4452 C   0  0  0  0  0  0  0  0  0  0  0  0
   -1.7094    2.4556   11.8300 C   0  0  0  0  0  0  0  0  0  0  0  0
   -1.9408    1.1698   11.3248 C   0  0  0  0  0  0  0  0  0  0  0  0
   -0.9846    0.2009   11.4268 C   0  0  0  0  0  0  0  0  0  0  0  0
    0.2207    0.5297   12.0456 C   0  0  0  0  0  0  0  0  0  0  0  0
    0.4328    1.8130   12.5441 C   0  0  0  0  0  0  0  0  0  0  0  0
   -1.1496   -1.0618   10.9554 O   0  0  0  0  0  0  0  0  0  0  0  0
   -2.2633   -1.4677   10.1982 C   0  0  0  0  0  0  0  0  0  0  0  0
   -2.2435   -2.9149    9.8888 C   0  0  0  0  0  0  0  0  0  0  0  0
   -2.5751   -3.8276   10.9886 C   0  0  0  0  0  0  0  0  0  0  0  0
   -2.3498   -5.2622   10.9865 C   0  0  0  0  0  0  0  0  0  0  0  0
   -2.8545   -6.0795   12.0837 C   0  0  0  0  0  0  0  0  0  0  0  0
   -2.7794   -5.7511   13.4266 C   0  0  0  0  0  0  0  0  0  0  0  0
   -3.2994   -6.5560   14.4015 C   0  0  0  0  0  0  0  0  0  0  0  0
   -3.9207   -7.7374   14.0442 C   0  0  0  0  0  0  0  0  0  0  0  0
   -4.0243   -8.1173   12.7197 C   0  0  0  0  0  0  0  0  0  0  0  0
   -3.4918   -7.2836   11.7804 C   0  0  0  0  0  0  0  0  0  0  0  0
   -4.6400   -9.2815   12.3906 F   0  0  0  0  0  0  0  0  0  0  0  0
   -1.9718   -4.2553   13.8580 Cl  0  0  0  0  0  0  0  0  0  0  0  0
    4.8595    4.0377   16.3859 C   0  0  0  0  0  0  0  0  0  0  0  0
    5.9812    4.1694   16.9515 O   0  0  0  0  0  0  0  0  0  0  0  0
    4.3729    2.7642   16.0713 O   0  0  0  0  0  0  0  0  0  0  0  0
  1  2  1  0
  2  3  1  0
  3  4  1  0
  4  5  2  0
  5  6  1  0
  6  7  2  0
  7  8  1  0
  8  9  2  0
  9 10  1  0
 10 11  1  0
 11 12  1  0
 12 13  1  0
 13 14  1  0
 14 15  2  0
 14 16  1  0
  5 17  1  0
 17 18  1  0
 18 19  2  0
 18 20  1  0
 20 21  2  0
 21 22  1  0
 22 23  2  0
 23 24  1  0
 24 25  2  0
 23 26  1  0
 26 27  1  0
 27 28  1  0
 28 29  1  0
 29 30  1  0
 30 31  1  0
 31 32  2  0
 32 33  1  0
 33 34  2  0
 34 35  1  0
 35 36  2  0
 35 37  1  0
 32 38  1  0
  2 39  1  0
 39 40  2  0
 39 41  1  0
 10  1  1  0
  9  4  1  0
 25 20  1  0
 36 31  1  0
M  END
$$$$
