
     RDKit          3D

 41 44  0  0  0  0  0  0  0  0999 V2000
    5.4340    5.9701   15.5021 C   0  0  0  0  0  0  0  0  0  0  0  0
    4.8446    4.6635   15.1568 C   0  0  0  0  0  0  0  0  0  0  0  0
    3.4677    4.9137   14.8036 O   0  0  0  0  0  0  0  0  0  0  0  0
    3.2804    5.6921   13.6432 C   0  0  0  0  0  0  0  0  0  0  0  0
    2.2599    5.4580   12.7739 C   0  0  0  0  0  0  0  0  0  0  0  0
    2.1474    6.2773   11.6453 C   0  0  0  0  0  0  0  0  0  0  0  0
    3.0473    7.2850   11.4346 C   0  0  0  0  0  0  0  0  0  0  0  0
    4.0818    7.4949   12.3519 C   0  0  0  0  0  0  0  0  0  0  0  0
    4.2384    6.7150   13.4818 C   0  0  0  0  0  0  0  0  0  0  0  0
    5.2759    6.9145   14.4213 N   0  0  0  0  0  0  0  0  0  0  0  0
    6.1309    8.0764   14.3074 C   0  0  0  0  0  0  0  0  0  0  0  0
    7.2262    7.8137   13.2784 C   0  0  0  0  0  0  0  0  0  0  0  0
    8.2666    6.8828   13.8178 C   0  0  0  0  0  0  0  0  0  0  0  0
    9.5634    6.9678   13.1382 C   0  0  0  0  0  0  0  0  0  0  0  0
    9.8604    8.0373   12.5414 O   0  0  0  0  0  0  0  0  0  0  0  0
   10.5017    5.9513   13.0995 O   0  0  0  0  0  0  0  0  0  0  0  0
    1.2841    4.4394   12.9473 N   0  0  0  0  0  0  0  0  0  0  0  0
    0.0043    4.4070   12.3966 C   0  0  0  0  0  0  0  0  0  0  0  0
   -0.2967    5.3367   11.5897 O   0  0  0  0  0  0  0  0  0  0  0  0
   -0.9328    3.3620   12.7388 C   0  0  0  0  0  0  0  0  0  0  0  0
   -0.5377    2.3832   13.6244 C   0  0  0  0  0  0  0  0  0  0  0  0
   -1.3789    1.3155   13.9628 C   0  0  0  0  0  0  0  0  0  0  0  0
   -2.6278    1.2163   13.4205 C   0  0  0  0  0  0  0  0  0  0  0  0
   -3.0358    2.2043   12.5255 C   0  0  0  0  0  0  0  0  0  0  0  0
   -2.1852    3.2579   12.1989 C   0  0  0  0  0  0  0  0  0  0  0  0
   -3.4884    0.2068   13.7105 O   0  0  0  0  0  0  0  0  0  0  0  0
   -3.1353   -0.9162   14.4804 C   0  0  0  0  0  0  0  0  0  0  0  0
   -4.1482   -1.9934   14.4121 C   0  0  0  0  0  0  0  0  0  0  0  0
   -3.9475   -3.0211   13.3844 C   0  0  0  0  0  0  0  0  0  0  0  0
   -4.8892   -4.0772   13.0577 C   0  0  0  0  0  0  0  0  0  0  0  0
   -4.4763   -5.1794   12.1966 C   0  0  0  0  0  0  0  0  0  0  0  0
   -3.6660   -6.2344   12.5802 C   0  0  0  0  0  0  0  0  0  0  0  0
   -3.3409   -7.2492   11.7241 C   0  0  0  0  0  0  0  0  0  0  0  0
   -3.8316   -7.2290   10.4325 C   0  0  0  0  0  0  0  0  0  0  0  0
   -4.6440   -6.2010    9.9936 C   0  0  0  0  0  0  0  0  0  0  0  0
   -4.9429   -5.2096   10.8816 C   0  0  0  0  0  0  0  0  0  0  0  0
   -5.1164   -6.2015    8.7209 F   0  0  0  0  0  0  0  0  0  0  0  0
   -3.0410   -6.2308   14.2188 Cl  0  0  0  0  0  0  0  0  0  0  0  0
    4.8732    3.6642   16.2392 C   0  0  0  0  0  0  0  0  0  0  0  0
    3.9979    2.7544   16.2018 O   0  0  0  0  0  0  0  0  0  0  0  0
    5.8150    3.6955   17.2733 O   0  0  0  0  0  0  0  0  0  0  0  0
  1  2  1  0
  2  3  1  0
  3  4  1  0
  4  5  2  0
  5  6  1  0
  6  7  2  0
  7  8  1  0
  8  9  2  0
  9 10  1  0
 10 11  1  0
 11 12  1  0
 12 13  1  0
 13 14  1  0
 14 15  2  0
 14 16  1  0
  5 17  1  0
 17 18  1  0
 18 19  2  0
 18 20  1  0
 20 21  2  0
 21 22  1  0
 22 23  2  0
 23 24  1  0
 24 25  2  0
 23 26  1  0
 26 27  1  0
 27 28  1  0
 28 29  1  0
 29 30  1  0
 30 31  1  0
 31 32  2  0
 32 33  1  0
 33 34  2  0
 34 35  1  0
 35 36  2  0
 35 37  1  0
 32 38  1  0
  2 39  1  0
 39 40  2  0
 39 41  1  0
 10  1  1  0
  9  4  1  0
 25 20  1  0
 36 31  1  0
M  END
$$$$
