
     RDKit          3D

 41 44  0  0  0  0  0  0  0  0999 V2000
    4.4697    5.1177   15.9138 C   0  0  0  0  0  0  0  0  0  0  0  0
    3.7960    4.5606   14.7264 C   0  0  0  0  0  0  0  0  0  0  0  0
    2.8160    3.6195   15.2131 O   0  0  0  0  0  0  0  0  0  0  0  0
    1.7683    4.1847   15.9684 C   0  0  0  0  0  0  0  0  0  0  0  0
    0.4920    3.7184   15.8942 C   0  0  0  0  0  0  0  0  0  0  0  0
   -0.4883    4.3381   16.6770 C   0  0  0  0  0  0  0  0  0  0  0  0
   -0.1571    5.3845   17.4926 C   0  0  0  0  0  0  0  0  0  0  0  0
    1.1663    5.8340   17.5422 C   0  0  0  0  0  0  0  0  0  0  0  0
    2.1721    5.2580   16.7900 C   0  0  0  0  0  0  0  0  0  0  0  0
    3.5154    5.6970   16.8297 N   0  0  0  0  0  0  0  0  0  0  0  0
    3.9171    6.6842   17.8087 C   0  0  0  0  0  0  0  0  0  0  0  0
    4.3777    5.9885   19.0859 C   0  0  0  0  0  0  0  0  0  0  0  0
    5.7607    5.4366   18.9356 C   0  0  0  0  0  0  0  0  0  0  0  0
    6.3088    4.8403   20.1582 C   0  0  0  0  0  0  0  0  0  0  0  0
    5.5092    4.4909   21.0675 O   0  0  0  0  0  0  0  0  0  0  0  0
    7.6553    4.6273   20.3967 O   0  0  0  0  0  0  0  0  0  0  0  0
    0.0899    2.6248   15.0805 N   0  0  0  0  0  0  0  0  0  0  0  0
   -0.8966    1.6849   15.3734 C   0  0  0  0  0  0  0  0  0  0  0  0
   -1.6234    1.9127   16.3862 O   0  0  0  0  0  0  0  0  0  0  0  0
   -1.0730    0.5047   14.5589 C   0  0  0  0  0  0  0  0  0  0  0  0
   -2.0174   -0.4248   14.9369 C   0  0  0  0  0  0  0  0  0  0  0  0
   -2.2069   -1.6130   14.2197 C   0  0  0  0  0  0  0  0  0  0  0  0
   -1.4547   -1.8840   13.1133 C   0  0  0  0  0  0  0  0  0  0  0  0
   -0.4988   -0.9472   12.7230 C   0  0  0  0  0  0  0  0  0  0  0  0
   -0.3227    0.2282   13.4493 C   0  0  0  0  0  0  0  0  0  0  0  0
   -1.5930   -3.0165   12.3770 O   0  0  0  0  0  0  0  0  0  0  0  0
   -2.0142   -4.2455   12.9161 C   0  0  0  0  0  0  0  0  0  0  0  0
   -2.1394   -5.3038   11.8889 C   0  0  0  0  0  0  0  0  0  0  0  0
   -3.2517   -5.1726   10.9411 C   0  0  0  0  0  0  0  0  0  0  0  0
   -3.5102   -6.0604    9.8214 C   0  0  0  0  0  0  0  0  0  0  0  0
   -4.6419   -5.8062    8.9375 C   0  0  0  0  0  0  0  0  0  0  0  0
   -4.6029   -5.0334    7.7894 C   0  0  0  0  0  0  0  0  0  0  0  0
   -5.7001   -4.8602    6.9927 C   0  0  0  0  0  0  0  0  0  0  0  0
   -6.8904   -5.4715    7.3373 C   0  0  0  0  0  0  0  0  0  0  0  0
   -6.9889   -6.2535    8.4722 C   0  0  0  0  0  0  0  0  0  0  0  0
   -5.8692   -6.3991    9.2376 C   0  0  0  0  0  0  0  0  0  0  0  0
   -8.1678   -6.8461    8.7915 F   0  0  0  0  0  0  0  0  0  0  0  0
   -3.0862   -4.2535    7.3806 Cl  0  0  0  0  0  0  0  0  0  0  0  0
    4.6833    3.8613   13.7806 C   0  0  0  0  0  0  0  0  0  0  0  0
    4.2369    2.8054   13.2506 O   0  0  0  0  0  0  0  0  0  0  0  0
    5.9658    4.3223   13.4638 O   0  0  0  0  0  0  0  0  0  0  0  0
  1  2  1  0
  2  3  1  0
  3  4  1  0
  4  5  2  0
  5  6  1  0
  6  7  2  0
  7  8  1  0
  8  9  2  0
  9 10  1  0
 10 11  1  0
 11 12  1  0
 12 13  1  0
 13 14  1  0
 14 15  2  0
 14 16  1  0
  5 17  1  0
 17 18  1  0
 18 19  2  0
 18 20  1  0
 20 21  2  0
 21 22  1  0
 22 23  2  0
 23 24  1  0
 24 25  2  0
 23 26  1  0
 26 27  1  0
 27 28  1  0
 28 29  1  0
 29 30  1  0
 30 31  1  0
 31 32  2  0
 32 33  1  0
 33 34  2  0
 34 35  1  0
 35 36  2  0
 35 37  1  0
 32 38  1  0
  2 39  1  0
 39 40  2  0
 39 41  1  0
 10  1  1  0
  9  4  1  0
 25 20  1  0
 36 31  1  0
M  END
$$$$
