
     RDKit          3D

 41 44  0  0  0  0  0  0  0  0999 V2000
   -0.6304   -4.1749   16.4128 C   0  0  0  0  0  0  0  0  0  0  0  0
   -1.1956   -3.3919   15.2986 C   0  0  0  0  0  0  0  0  0  0  0  0
   -1.2330   -2.0179   15.7386 O   0  0  0  0  0  0  0  0  0  0  0  0
    0.0274   -1.4291   15.9670 C   0  0  0  0  0  0  0  0  0  0  0  0
    0.2787   -0.1245   15.6724 C   0  0  0  0  0  0  0  0  0  0  0  0
    1.5582    0.3801   15.9293 C   0  0  0  0  0  0  0  0  0  0  0  0
    2.5219   -0.4292   16.4642 C   0  0  0  0  0  0  0  0  0  0  0  0
    2.2244   -1.7644   16.7546 C   0  0  0  0  0  0  0  0  0  0  0  0
    0.9778   -2.3126   16.5203 C   0  0  0  0  0  0  0  0  0  0  0  0
    0.6583   -3.6590   16.8103 N   0  0  0  0  0  0  0  0  0  0  0  0
    1.6067   -4.4802   17.5318 C   0  0  0  0  0  0  0  0  0  0  0  0
    1.6073   -5.8941   16.9590 C   0  0  0  0  0  0  0  0  0  0  0  0
    2.3873   -5.9634   15.6836 C   0  0  0  0  0  0  0  0  0  0  0  0
    2.5381   -7.3175   15.1410 C   0  0  0  0  0  0  0  0  0  0  0  0
    1.5126   -7.9104   14.7106 O   0  0  0  0  0  0  0  0  0  0  0  0
    3.7354   -8.0071   15.0626 O   0  0  0  0  0  0  0  0  0  0  0  0
   -0.6850    0.7698   15.1328 N   0  0  0  0  0  0  0  0  0  0  0  0
   -0.5193    2.1337   14.8988 C   0  0  0  0  0  0  0  0  0  0  0  0
    0.2333    2.7657   15.6989 O   0  0  0  0  0  0  0  0  0  0  0  0
   -1.1827    2.7912   13.7966 C   0  0  0  0  0  0  0  0  0  0  0  0
   -0.6186    3.9333   13.2713 C   0  0  0  0  0  0  0  0  0  0  0  0
   -1.2336    4.6466   12.2344 C   0  0  0  0  0  0  0  0  0  0  0  0
   -2.4201    4.2233   11.7086 C   0  0  0  0  0  0  0  0  0  0  0  0
   -2.9959    3.0669   12.2330 C   0  0  0  0  0  0  0  0  0  0  0  0
   -2.3712    2.3713   13.2655 C   0  0  0  0  0  0  0  0  0  0  0  0
   -3.0630    4.8706   10.7029 O   0  0  0  0  0  0  0  0  0  0  0  0
   -2.4662    5.8767    9.9218 C   0  0  0  0  0  0  0  0  0  0  0  0
   -3.0963    6.0107    8.5892 C   0  0  0  0  0  0  0  0  0  0  0  0
   -2.4513    5.2967    7.4816 C   0  0  0  0  0  0  0  0  0  0  0  0
   -1.2485    4.4901    7.5894 C   0  0  0  0  0  0  0  0  0  0  0  0
   -0.9596    3.4762    6.5820 C   0  0  0  0  0  0  0  0  0  0  0  0
   -1.9038    2.8351    5.7981 C   0  0  0  0  0  0  0  0  0  0  0  0
   -1.5565    1.9112    4.8523 C   0  0  0  0  0  0  0  0  0  0  0  0
   -0.2229    1.6007    4.6666 C   0  0  0  0  0  0  0  0  0  0  0  0
    0.7630    2.2079    5.4205 C   0  0  0  0  0  0  0  0  0  0  0  0
    0.3712    3.1237    6.3524 C   0  0  0  0  0  0  0  0  0  0  0  0
    2.0674    1.8891    5.2207 F   0  0  0  0  0  0  0  0  0  0  0  0
   -3.5914    3.2325    6.0626 Cl  0  0  0  0  0  0  0  0  0  0  0  0
   -2.5550   -3.7868   14.8895 C   0  0  0  0  0  0  0  0  0  0  0  0
   -3.5012   -3.0257   15.2367 O   0  0  0  0  0  0  0  0  0  0  0  0
   -2.8162   -4.9451   14.1496 O   0  0  0  0  0  0  0  0  0  0  0  0
  1  2  1  0
  2  3  1  0
  3  4  1  0
  4  5  2  0
  5  6  1  0
  6  7  2  0
  7  8  1  0
  8  9  2  0
  9 10  1  0
 10 11  1  0
 11 12  1  0
 12 13  1  0
 13 14  1  0
 14 15  2  0
 14 16  1  0
  5 17  1  0
 17 18  1  0
 18 19  2  0
 18 20  1  0
 20 21  2  0
 21 22  1  0
 22 23  2  0
 23 24  1  0
 24 25  2  0
 23 26  1  0
 26 27  1  0
 27 28  1  0
 28 29  1  0
 29 30  1  0
 30 31  1  0
 31 32  2  0
 32 33  1  0
 33 34  2  0
 34 35  1  0
 35 36  2  0
 35 37  1  0
 32 38  1  0
  2 39  1  0
 39 40  2  0
 39 41  1  0
 10  1  1  0
  9  4  1  0
 25 20  1  0
 36 31  1  0
M  END
$$$$
