
     RDKit          3D

 41 44  0  0  0  0  0  0  0  0999 V2000
    3.6597    0.3961   17.1270 C   0  0  0  0  0  0  0  0  0  0  0  0
    3.5218   -1.0107   17.5462 C   0  0  0  0  0  0  0  0  0  0  0  0
    2.7223   -1.6640   16.5377 O   0  0  0  0  0  0  0  0  0  0  0  0
    3.3170   -1.7429   15.2620 C   0  0  0  0  0  0  0  0  0  0  0  0
    3.1523   -2.8258   14.4545 C   0  0  0  0  0  0  0  0  0  0  0  0
    3.7792   -2.8232   13.2036 C   0  0  0  0  0  0  0  0  0  0  0  0
    4.5348   -1.7517   12.8152 C   0  0  0  0  0  0  0  0  0  0  0  0
    4.6790   -0.6567   13.6730 C   0  0  0  0  0  0  0  0  0  0  0  0
    4.0819   -0.6085   14.9182 C   0  0  0  0  0  0  0  0  0  0  0  0
    4.2141    0.4910   15.7971 N   0  0  0  0  0  0  0  0  0  0  0  0
    4.8636    1.7001   15.3381 C   0  0  0  0  0  0  0  0  0  0  0  0
    6.1345    1.9432   16.1462 C   0  0  0  0  0  0  0  0  0  0  0  0
    5.8532    2.7589   17.3691 C   0  0  0  0  0  0  0  0  0  0  0  0
    7.0347    3.0428   18.1903 C   0  0  0  0  0  0  0  0  0  0  0  0
    7.7226    4.0639   17.9211 O   0  0  0  0  0  0  0  0  0  0  0  0
    7.4610    2.2668   19.2539 O   0  0  0  0  0  0  0  0  0  0  0  0
    2.3660   -3.9599   14.7939 N   0  0  0  0  0  0  0  0  0  0  0  0
    1.2957   -4.4808   14.0690 C   0  0  0  0  0  0  0  0  0  0  0  0
    1.3596   -5.7062   13.7523 O   0  0  0  0  0  0  0  0  0  0  0  0
    0.1714   -3.6545   13.6943 C   0  0  0  0  0  0  0  0  0  0  0  0
   -1.1022   -4.1471   13.8791 C   0  0  0  0  0  0  0  0  0  0  0  0
   -2.2348   -3.4185   13.4938 C   0  0  0  0  0  0  0  0  0  0  0  0
   -2.1063   -2.1860   12.9211 C   0  0  0  0  0  0  0  0  0  0  0  0
   -0.8210   -1.6796   12.7331 C   0  0  0  0  0  0  0  0  0  0  0  0
    0.2942   -2.4190   13.1206 C   0  0  0  0  0  0  0  0  0  0  0  0
   -3.1653   -1.4323   12.5285 O   0  0  0  0  0  0  0  0  0  0  0  0
   -4.4866   -1.6743   12.9459 C   0  0  0  0  0  0  0  0  0  0  0  0
   -5.4496   -0.7065   12.3741 C   0  0  0  0  0  0  0  0  0  0  0  0
   -4.9837    0.6771   12.2281 C   0  0  0  0  0  0  0  0  0  0  0  0
   -5.5831    1.8367   12.8644 C   0  0  0  0  0  0  0  0  0  0  0  0
   -5.0451    3.1674   12.6068 C   0  0  0  0  0  0  0  0  0  0  0  0
   -5.3295    3.9446   11.4969 C   0  0  0  0  0  0  0  0  0  0  0  0
   -4.8077    5.1975   11.3343 C   0  0  0  0  0  0  0  0  0  0  0  0
   -3.9678    5.7122   12.3034 C   0  0  0  0  0  0  0  0  0  0  0  0
   -3.6477    4.9818   13.4318 C   0  0  0  0  0  0  0  0  0  0  0  0
   -4.1912    3.7365   13.5529 C   0  0  0  0  0  0  0  0  0  0  0  0
   -2.8216    5.5071   14.3723 F   0  0  0  0  0  0  0  0  0  0  0  0
   -6.3844    3.2646   10.2719 Cl  0  0  0  0  0  0  0  0  0  0  0  0
    2.8731   -1.2077   18.8544 C   0  0  0  0  0  0  0  0  0  0  0  0
    3.6279   -1.2599   19.8657 O   0  0  0  0  0  0  0  0  0  0  0  0
    1.4873   -1.3335   19.0007 O   0  0  0  0  0  0  0  0  0  0  0  0
  1  2  1  0
  2  3  1  0
  3  4  1  0
  4  5  2  0
  5  6  1  0
  6  7  2  0
  7  8  1  0
  8  9  2  0
  9 10  1  0
 10 11  1  0
 11 12  1  0
 12 13  1  0
 13 14  1  0
 14 15  2  0
 14 16  1  0
  5 17  1  0
 17 18  1  0
 18 19  2  0
 18 20  1  0
 20 21  2  0
 21 22  1  0
 22 23  2  0
 23 24  1  0
 24 25  2  0
 23 26  1  0
 26 27  1  0
 27 28  1  0
 28 29  1  0
 29 30  1  0
 30 31  1  0
 31 32  2  0
 32 33  1  0
 33 34  2  0
 34 35  1  0
 35 36  2  0
 35 37  1  0
 32 38  1  0
  2 39  1  0
 39 40  2  0
 39 41  1  0
 10  1  1  0
  9  4  1  0
 25 20  1  0
 36 31  1  0
M  END
$$$$
