
     RDKit          3D

 41 44  0  0  0  0  0  0  0  0999 V2000
    3.6721   -3.5947   14.4846 C   0  0  0  0  0  0  0  0  0  0  0  0
    2.7004   -2.8255   15.2835 C   0  0  0  0  0  0  0  0  0  0  0  0
    1.6687   -2.3931   14.3716 O   0  0  0  0  0  0  0  0  0  0  0  0
    0.9010   -3.4297   13.8029 C   0  0  0  0  0  0  0  0  0  0  0  0
   -0.4314   -3.2926   13.5621 C   0  0  0  0  0  0  0  0  0  0  0  0
   -1.1188   -4.3720   12.9963 C   0  0  0  0  0  0  0  0  0  0  0  0
   -0.4550   -5.5294   12.6970 C   0  0  0  0  0  0  0  0  0  0  0  0
    0.9151   -5.6311   12.9582 C   0  0  0  0  0  0  0  0  0  0  0  0
    1.6410   -4.5959   13.5157 C   0  0  0  0  0  0  0  0  0  0  0  0
    3.0267   -4.6798   13.7838 N   0  0  0  0  0  0  0  0  0  0  0  0
    3.7775   -5.8262   13.3187 C   0  0  0  0  0  0  0  0  0  0  0  0
    4.0909   -5.6713   11.8337 C   0  0  0  0  0  0  0  0  0  0  0  0
    3.1745   -6.5058   10.9949 C   0  0  0  0  0  0  0  0  0  0  0  0
    3.5037   -6.5137    9.5658 C   0  0  0  0  0  0  0  0  0  0  0  0
    3.4913   -5.4199    8.9400 O   0  0  0  0  0  0  0  0  0  0  0  0
    3.8321   -7.6442    8.8383 O   0  0  0  0  0  0  0  0  0  0  0  0
   -1.1721   -2.1106   13.8341 N   0  0  0  0  0  0  0  0  0  0  0  0
   -2.1988   -1.5724   13.0605 C   0  0  0  0  0  0  0  0  0  0  0  0
   -2.9405   -2.3922   12.4410 O   0  0  0  0  0  0  0  0  0  0  0  0
   -2.3989   -0.1445   12.9690 C   0  0  0  0  0  0  0  0  0  0  0  0
   -1.3020    0.6844   13.0609 C   0  0  0  0  0  0  0  0  0  0  0  0
   -1.4300    2.0789   13.0279 C   0  0  0  0  0  0  0  0  0  0  0  0
   -2.6581    2.6608   12.8994 C   0  0  0  0  0  0  0  0  0  0  0  0
   -3.7727    1.8288   12.8032 C   0  0  0  0  0  0  0  0  0  0  0  0
   -3.6268    0.4440   12.8399 C   0  0  0  0  0  0  0  0  0  0  0  0
   -2.8456    4.0050   12.8598 O   0  0  0  0  0  0  0  0  0  0  0  0
   -1.9379    4.9312   13.4047 C   0  0  0  0  0  0  0  0  0  0  0  0
   -2.4009    6.3301   13.2658 C   0  0  0  0  0  0  0  0  0  0  0  0
   -2.5414    7.1029   14.5050 C   0  0  0  0  0  0  0  0  0  0  0  0
   -3.2496    6.6623   15.6938 C   0  0  0  0  0  0  0  0  0  0  0  0
   -3.3867    7.5611   16.8340 C   0  0  0  0  0  0  0  0  0  0  0  0
   -4.5290    8.2725   17.1593 C   0  0  0  0  0  0  0  0  0  0  0  0
   -4.5937    9.0783   18.2617 C   0  0  0  0  0  0  0  0  0  0  0  0
   -3.4880    9.1928   19.0825 C   0  0  0  0  0  0  0  0  0  0  0  0
   -2.3204    8.5072   18.8070 C   0  0  0  0  0  0  0  0  0  0  0  0
   -2.3007    7.7146   17.6970 C   0  0  0  0  0  0  0  0  0  0  0  0
   -1.2463    8.6330   19.6276 F   0  0  0  0  0  0  0  0  0  0  0  0
   -5.9145    8.1251   16.0943 Cl  0  0  0  0  0  0  0  0  0  0  0  0
    3.2534   -1.6378   15.9577 C   0  0  0  0  0  0  0  0  0  0  0  0
    2.6429   -0.5456   15.7856 O   0  0  0  0  0  0  0  0  0  0  0  0
    4.3997   -1.6871   16.7583 O   0  0  0  0  0  0  0  0  0  0  0  0
  1  2  1  0
  2  3  1  0
  3  4  1  0
  4  5  2  0
  5  6  1  0
  6  7  2  0
  7  8  1  0
  8  9  2  0
  9 10  1  0
 10 11  1  0
 11 12  1  0
 12 13  1  0
 13 14  1  0
 14 15  2  0
 14 16  1  0
  5 17  1  0
 17 18  1  0
 18 19  2  0
 18 20  1  0
 20 21  2  0
 21 22  1  0
 22 23  2  0
 23 24  1  0
 24 25  2  0
 23 26  1  0
 26 27  1  0
 27 28  1  0
 28 29  1  0
 29 30  1  0
 30 31  1  0
 31 32  2  0
 32 33  1  0
 33 34  2  0
 34 35  1  0
 35 36  2  0
 35 37  1  0
 32 38  1  0
  2 39  1  0
 39 40  2  0
 39 41  1  0
 10  1  1  0
  9  4  1  0
 25 20  1  0
 36 31  1  0
M  END
$$$$
