
     RDKit          3D

 41 44  0  0  0  0  0  0  0  0999 V2000
    4.1758    3.8925   17.7698 C   0  0  0  0  0  0  0  0  0  0  0  0
    3.5983    2.6186   18.2362 C   0  0  0  0  0  0  0  0  0  0  0  0
    2.1736    2.7110   18.0250 O   0  0  0  0  0  0  0  0  0  0  0  0
    1.7737    2.7954   16.6758 C   0  0  0  0  0  0  0  0  0  0  0  0
    0.6417    2.1934   16.2195 C   0  0  0  0  0  0  0  0  0  0  0  0
    0.3187    2.3260   14.8645 C   0  0  0  0  0  0  0  0  0  0  0  0
    1.1293    3.0465   14.0316 C   0  0  0  0  0  0  0  0  0  0  0  0
    2.2836    3.6515   14.5388 C   0  0  0  0  0  0  0  0  0  0  0  0
    2.6486    3.5516   15.8679 C   0  0  0  0  0  0  0  0  0  0  0  0
    3.8097    4.1589   16.3986 N   0  0  0  0  0  0  0  0  0  0  0  0
    4.5842    5.0631   15.5759 C   0  0  0  0  0  0  0  0  0  0  0  0
    4.2890    6.5059   15.9741 C   0  0  0  0  0  0  0  0  0  0  0  0
    3.1613    7.0719   15.1692 C   0  0  0  0  0  0  0  0  0  0  0  0
    2.8716    8.4829   15.4447 C   0  0  0  0  0  0  0  0  0  0  0  0
    3.8369    9.2877   15.5384 O   0  0  0  0  0  0  0  0  0  0  0  0
    1.6029    9.0094   15.6126 O   0  0  0  0  0  0  0  0  0  0  0  0
   -0.2490    1.4477   17.0382 N   0  0  0  0  0  0  0  0  0  0  0  0
   -0.9158    0.2738   16.6924 C   0  0  0  0  0  0  0  0  0  0  0  0
   -1.6531   -0.2499   17.5801 O   0  0  0  0  0  0  0  0  0  0  0  0
   -0.7641   -0.3165   15.3825 C   0  0  0  0  0  0  0  0  0  0  0  0
   -1.0531    0.4496   14.2742 C   0  0  0  0  0  0  0  0  0  0  0  0
   -0.9732   -0.0745   12.9777 C   0  0  0  0  0  0  0  0  0  0  0  0
   -0.6000   -1.3718   12.7746 C   0  0  0  0  0  0  0  0  0  0  0  0
   -0.3033   -2.1526   13.8908 C   0  0  0  0  0  0  0  0  0  0  0  0
   -0.3901   -1.6154   15.1731 C   0  0  0  0  0  0  0  0  0  0  0  0
   -0.5029   -1.9355   11.5431 O   0  0  0  0  0  0  0  0  0  0  0  0
   -1.3578   -1.6139   10.4733 C   0  0  0  0  0  0  0  0  0  0  0  0
   -1.5642   -2.7514    9.5490 C   0  0  0  0  0  0  0  0  0  0  0  0
   -2.8134   -3.5055    9.7023 C   0  0  0  0  0  0  0  0  0  0  0  0
   -2.9570   -4.9389    9.5188 C   0  0  0  0  0  0  0  0  0  0  0  0
   -4.2824   -5.5203    9.3400 C   0  0  0  0  0  0  0  0  0  0  0  0
   -4.8634   -5.8285    8.1217 C   0  0  0  0  0  0  0  0  0  0  0  0
   -6.1028   -6.3980    8.0314 C   0  0  0  0  0  0  0  0  0  0  0  0
   -6.8056   -6.6775    9.1879 C   0  0  0  0  0  0  0  0  0  0  0  0
   -6.2763   -6.3908   10.4316 C   0  0  0  0  0  0  0  0  0  0  0  0
   -5.0367   -5.8233   10.4746 C   0  0  0  0  0  0  0  0  0  0  0  0
   -6.9832   -6.6750   11.5552 F   0  0  0  0  0  0  0  0  0  0  0  0
   -3.9605   -5.4497    6.6667 Cl  0  0  0  0  0  0  0  0  0  0  0  0
    3.8394    2.3113   19.6569 C   0  0  0  0  0  0  0  0  0  0  0  0
    4.9241    2.7233   20.1558 O   0  0  0  0  0  0  0  0  0  0  0  0
    2.9269    1.5988   20.4426 O   0  0  0  0  0  0  0  0  0  0  0  0
  1  2  1  0
  2  3  1  0
  3  4  1  0
  4  5  2  0
  5  6  1  0
  6  7  2  0
  7  8  1  0
  8  9  2  0
  9 10  1  0
 10 11  1  0
 11 12  1  0
 12 13  1  0
 13 14  1  0
 14 15  2  0
 14 16  1  0
  5 17  1  0
 17 18  1  0
 18 19  2  0
 18 20  1  0
 20 21  2  0
 21 22  1  0
 22 23  2  0
 23 24  1  0
 24 25  2  0
 23 26  1  0
 26 27  1  0
 27 28  1  0
 28 29  1  0
 29 30  1  0
 30 31  1  0
 31 32  2  0
 32 33  1  0
 33 34  2  0
 34 35  1  0
 35 36  2  0
 35 37  1  0
 32 38  1  0
  2 39  1  0
 39 40  2  0
 39 41  1  0
 10  1  1  0
  9  4  1  0
 25 20  1  0
 36 31  1  0
M  END
$$$$
