
     RDKit          3D

 41 44  0  0  0  0  0  0  0  0999 V2000
   12.9747   -0.2127  -11.9487 C   0  0  0  0  0  0  0  0  0  0  0  0
   12.0256   -1.1627  -11.3398 C   0  0  0  0  0  0  0  0  0  0  0  0
   10.8354   -0.4098  -11.0242 O   0  0  0  0  0  0  0  0  0  0  0  0
   10.1401    0.1035  -12.1380 C   0  0  0  0  0  0  0  0  0  0  0  0
    8.7812    0.1666  -12.1743 C   0  0  0  0  0  0  0  0  0  0  0  0
    8.1707    0.6891  -13.3197 C   0  0  0  0  0  0  0  0  0  0  0  0
    8.9335    1.1226  -14.3686 C   0  0  0  0  0  0  0  0  0  0  0  0
   10.3276    1.0423  -14.2928 C   0  0  0  0  0  0  0  0  0  0  0  0
   10.9805    0.5349  -13.1857 C   0  0  0  0  0  0  0  0  0  0  0  0
   12.3885    0.4491  -13.0904 N   0  0  0  0  0  0  0  0  0  0  0  0
   13.2134    1.0573  -14.1120 C   0  0  0  0  0  0  0  0  0  0  0  0
   14.0241    2.2006  -13.5093 C   0  0  0  0  0  0  0  0  0  0  0  0
   13.4082    3.5280  -13.8231 C   0  0  0  0  0  0  0  0  0  0  0  0
   14.2916    4.6745  -13.5867 C   0  0  0  0  0  0  0  0  0  0  0  0
   15.0258    4.6666  -12.5624 O   0  0  0  0  0  0  0  0  0  0  0  0
   14.3847    5.7818  -14.4116 O   0  0  0  0  0  0  0  0  0  0  0  0
    7.9361   -0.2507  -11.1106 N   0  0  0  0  0  0  0  0  0  0  0  0
    6.5450   -0.3317  -11.1324 C   0  0  0  0  0  0  0  0  0  0  0  0
    5.9626    0.0820  -12.1791 O   0  0  0  0  0  0  0  0  0  0  0  0
    5.8071   -0.8588  -10.0077 C   0  0  0  0  0  0  0  0  0  0  0  0
    4.4301   -0.8260  -10.0460 C   0  0  0  0  0  0  0  0  0  0  0  0
    3.6543   -1.2764   -8.9702 C   0  0  0  0  0  0  0  0  0  0  0  0
    4.2479   -1.7680   -7.8435 C   0  0  0  0  0  0  0  0  0  0  0  0
    5.6407   -1.8069   -7.7981 C   0  0  0  0  0  0  0  0  0  0  0  0
    6.3964   -1.3529   -8.8766 C   0  0  0  0  0  0  0  0  0  0  0  0
    3.5501   -2.2202   -6.7700 O   0  0  0  0  0  0  0  0  0  0  0  0
    4.1369   -2.9291   -5.7061 C   0  0  0  0  0  0  0  0  0  0  0  0
    3.1707   -3.2398   -4.6287 C   0  0  0  0  0  0  0  0  0  0  0  0
    3.4822   -2.7156   -3.2942 C   0  0  0  0  0  0  0  0  0  0  0  0
    2.5028   -2.3184   -2.2983 C   0  0  0  0  0  0  0  0  0  0  0  0
    2.9449   -1.7701   -1.0214 C   0  0  0  0  0  0  0  0  0  0  0  0
    3.8140   -2.3921   -0.1413 C   0  0  0  0  0  0  0  0  0  0  0  0
    4.2062   -1.8049    1.0292 C   0  0  0  0  0  0  0  0  0  0  0  0
    3.7239   -0.5510    1.3526 C   0  0  0  0  0  0  0  0  0  0  0  0
    2.8532    0.1171    0.5132 C   0  0  0  0  0  0  0  0  0  0  0  0
    2.4888   -0.5062   -0.6442 C   0  0  0  0  0  0  0  0  0  0  0  0
    2.3925    1.3490    0.8496 F   0  0  0  0  0  0  0  0  0  0  0  0
    4.4003   -3.9900   -0.5642 Cl  0  0  0  0  0  0  0  0  0  0  0  0
   12.5043   -1.8145  -10.1081 C   0  0  0  0  0  0  0  0  0  0  0  0
   12.4537   -3.0760  -10.0712 O   0  0  0  0  0  0  0  0  0  0  0  0
   12.9982   -1.0957   -9.0142 O   0  0  0  0  0  0  0  0  0  0  0  0
  1  2  1  0
  2  3  1  0
  3  4  1  0
  4  5  2  0
  5  6  1  0
  6  7  2  0
  7  8  1  0
  8  9  2  0
  9 10  1  0
 10 11  1  0
 11 12  1  0
 12 13  1  0
 13 14  1  0
 14 15  2  0
 14 16  1  0
  5 17  1  0
 17 18  1  0
 18 19  2  0
 18 20  1  0
 20 21  2  0
 21 22  1  0
 22 23  2  0
 23 24  1  0
 24 25  2  0
 23 26  1  0
 26 27  1  0
 27 28  1  0
 28 29  1  0
 29 30  1  0
 30 31  1  0
 31 32  2  0
 32 33  1  0
 33 34  2  0
 34 35  1  0
 35 36  2  0
 35 37  1  0
 32 38  1  0
  2 39  1  0
 39 40  2  0
 39 41  1  0
 10  1  1  0
  9  4  1  0
 25 20  1  0
 36 31  1  0
M  END
$$$$
