
     RDKit          3D

 41 44  0  0  0  0  0  0  0  0999 V2000
    5.0853    3.5691   20.2598 C   0  0  0  0  0  0  0  0  0  0  0  0
    4.7290    2.4654   19.3494 C   0  0  0  0  0  0  0  0  0  0  0  0
    3.6732    2.9588   18.4980 O   0  0  0  0  0  0  0  0  0  0  0  0
    4.0438    4.0098   17.6346 C   0  0  0  0  0  0  0  0  0  0  0  0
    3.5452    4.1171   16.3728 C   0  0  0  0  0  0  0  0  0  0  0  0
    3.9671    5.1908   15.5809 C   0  0  0  0  0  0  0  0  0  0  0  0
    4.8580    6.1023   16.0763 C   0  0  0  0  0  0  0  0  0  0  0  0
    5.3467    5.9583   17.3787 C   0  0  0  0  0  0  0  0  0  0  0  0
    4.9630    4.9170   18.2020 C   0  0  0  0  0  0  0  0  0  0  0  0
    5.4441    4.7573   19.5218 N   0  0  0  0  0  0  0  0  0  0  0  0
    6.2496    5.7995   20.1210 C   0  0  0  0  0  0  0  0  0  0  0  0
    7.6627    5.7550   19.5477 C   0  0  0  0  0  0  0  0  0  0  0  0
    8.4604    4.6433   20.1541 C   0  0  0  0  0  0  0  0  0  0  0  0
    9.7964    4.4728   19.5739 C   0  0  0  0  0  0  0  0  0  0  0  0
   10.7412    5.1755   20.0231 O   0  0  0  0  0  0  0  0  0  0  0  0
   10.1073    3.5877   18.5564 O   0  0  0  0  0  0  0  0  0  0  0  0
    2.6046    3.2134   15.8088 N   0  0  0  0  0  0  0  0  0  0  0  0
    1.5582    3.5294   14.9443 C   0  0  0  0  0  0  0  0  0  0  0  0
    1.6138    4.6544   14.3635 O   0  0  0  0  0  0  0  0  0  0  0  0
    0.4610    2.6144   14.7295 C   0  0  0  0  0  0  0  0  0  0  0  0
    0.3639    1.4981   15.5314 C   0  0  0  0  0  0  0  0  0  0  0  0
   -0.6469    0.5462   15.3464 C   0  0  0  0  0  0  0  0  0  0  0  0
   -1.5751    0.7019   14.3576 C   0  0  0  0  0  0  0  0  0  0  0  0
   -1.4852    1.8302   13.5436 C   0  0  0  0  0  0  0  0  0  0  0  0
   -0.4720    2.7656   13.7408 C   0  0  0  0  0  0  0  0  0  0  0  0
   -2.5781   -0.1848   14.1304 O   0  0  0  0  0  0  0  0  0  0  0  0
   -3.6371    0.0547   13.2361 C   0  0  0  0  0  0  0  0  0  0  0  0
   -4.6020   -1.0665   13.1844 C   0  0  0  0  0  0  0  0  0  0  0  0
   -4.1033   -2.3399   12.6528 C   0  0  0  0  0  0  0  0  0  0  0  0
   -4.4052   -2.8767   11.3377 C   0  0  0  0  0  0  0  0  0  0  0  0
   -4.0956   -4.2685   11.0314 C   0  0  0  0  0  0  0  0  0  0  0  0
   -5.0297   -5.2675   10.8165 C   0  0  0  0  0  0  0  0  0  0  0  0
   -4.6655   -6.5482   10.5068 C   0  0  0  0  0  0  0  0  0  0  0  0
   -3.3243   -6.8646   10.4037 C   0  0  0  0  0  0  0  0  0  0  0  0
   -2.3477   -5.9089   10.6085 C   0  0  0  0  0  0  0  0  0  0  0  0
   -2.7565   -4.6441   10.9151 C   0  0  0  0  0  0  0  0  0  0  0  0
   -1.0358   -6.2410   10.5008 F   0  0  0  0  0  0  0  0  0  0  0  0
   -6.7255   -4.8471   10.9691 Cl  0  0  0  0  0  0  0  0  0  0  0  0
    4.2550    1.2397   20.0159 C   0  0  0  0  0  0  0  0  0  0  0  0
    3.5624    0.4426   19.3230 O   0  0  0  0  0  0  0  0  0  0  0  0
    4.5438    0.9451   21.3527 O   0  0  0  0  0  0  0  0  0  0  0  0
  1  2  1  0
  2  3  1  0
  3  4  1  0
  4  5  2  0
  5  6  1  0
  6  7  2  0
  7  8  1  0
  8  9  2  0
  9 10  1  0
 10 11  1  0
 11 12  1  0
 12 13  1  0
 13 14  1  0
 14 15  2  0
 14 16  1  0
  5 17  1  0
 17 18  1  0
 18 19  2  0
 18 20  1  0
 20 21  2  0
 21 22  1  0
 22 23  2  0
 23 24  1  0
 24 25  2  0
 23 26  1  0
 26 27  1  0
 27 28  1  0
 28 29  1  0
 29 30  1  0
 30 31  1  0
 31 32  2  0
 32 33  1  0
 33 34  2  0
 34 35  1  0
 35 36  2  0
 35 37  1  0
 32 38  1  0
  2 39  1  0
 39 40  2  0
 39 41  1  0
 10  1  1  0
  9  4  1  0
 25 20  1  0
 36 31  1  0
M  END
$$$$
