
     RDKit          3D

 41 44  0  0  0  0  0  0  0  0999 V2000
    0.1879   -5.6396   12.0868 C   0  0  0  0  0  0  0  0  0  0  0  0
   -0.7462   -4.5816   11.6600 C   0  0  0  0  0  0  0  0  0  0  0  0
   -0.0613   -3.3258   11.8524 O   0  0  0  0  0  0  0  0  0  0  0  0
    1.0722   -3.1323   11.0368 C   0  0  0  0  0  0  0  0  0  0  0  0
    1.3940   -1.9127   10.5258 C   0  0  0  0  0  0  0  0  0  0  0  0
    2.5360   -1.8086    9.7240 C   0  0  0  0  0  0  0  0  0  0  0  0
    3.3006   -2.9134    9.4696 C   0  0  0  0  0  0  0  0  0  0  0  0
    2.9376   -4.1493   10.0142 C   0  0  0  0  0  0  0  0  0  0  0  0
    1.8202   -4.3069   10.8118 C   0  0  0  0  0  0  0  0  0  0  0  0
    1.4398   -5.5475   11.3732 N   0  0  0  0  0  0  0  0  0  0  0  0
    2.3250   -6.6866   11.2582 C   0  0  0  0  0  0  0  0  0  0  0  0
    2.3328   -7.4696   12.5675 C   0  0  0  0  0  0  0  0  0  0  0  0
    3.0816   -6.7356   13.6353 C   0  0  0  0  0  0  0  0  0  0  0  0
    2.9118   -7.2907   14.9821 C   0  0  0  0  0  0  0  0  0  0  0  0
    2.7761   -6.4931   15.9484 O   0  0  0  0  0  0  0  0  0  0  0  0
    2.8884   -8.6417   15.2812 O   0  0  0  0  0  0  0  0  0  0  0  0
    0.6504   -0.7262   10.7687 N   0  0  0  0  0  0  0  0  0  0  0  0
    1.1576    0.5113   11.1605 C   0  0  0  0  0  0  0  0  0  0  0  0
    2.3994    0.7013   10.9933 O   0  0  0  0  0  0  0  0  0  0  0  0
    0.3025    1.5239   11.7356 C   0  0  0  0  0  0  0  0  0  0  0  0
    0.8655    2.7166   12.1346 C   0  0  0  0  0  0  0  0  0  0  0  0
    0.1030    3.7219   12.7428 C   0  0  0  0  0  0  0  0  0  0  0  0
   -1.2339    3.5465   12.9564 C   0  0  0  0  0  0  0  0  0  0  0  0
   -1.8115    2.3435   12.5530 C   0  0  0  0  0  0  0  0  0  0  0  0
   -1.0374    1.3539   11.9515 C   0  0  0  0  0  0  0  0  0  0  0  0
   -2.0249    4.4838   13.5390 O   0  0  0  0  0  0  0  0  0  0  0  0
   -3.3547    4.2425   13.9292 C   0  0  0  0  0  0  0  0  0  0  0  0
   -3.6306    4.6877   15.3135 C   0  0  0  0  0  0  0  0  0  0  0  0
   -4.4519    3.7962   16.1401 C   0  0  0  0  0  0  0  0  0  0  0  0
   -5.7441    4.1333   16.7106 C   0  0  0  0  0  0  0  0  0  0  0  0
   -6.2612    3.3714   17.8414 C   0  0  0  0  0  0  0  0  0  0  0  0
   -5.7547    3.4076   19.1294 C   0  0  0  0  0  0  0  0  0  0  0  0
   -6.3088    2.6843   20.1485 C   0  0  0  0  0  0  0  0  0  0  0  0
   -7.4091    1.8882   19.8935 C   0  0  0  0  0  0  0  0  0  0  0  0
   -7.9570    1.8119   18.6273 C   0  0  0  0  0  0  0  0  0  0  0  0
   -7.3722    2.5507   17.6409 C   0  0  0  0  0  0  0  0  0  0  0  0
   -9.0391    1.0246   18.3990 F   0  0  0  0  0  0  0  0  0  0  0  0
   -4.3478    4.4117   19.4263 Cl  0  0  0  0  0  0  0  0  0  0  0  0
   -2.0166   -4.5378   12.4051 C   0  0  0  0  0  0  0  0  0  0  0  0
   -3.0069   -5.1229   11.8832 O   0  0  0  0  0  0  0  0  0  0  0  0
   -2.1499   -3.8868   13.6363 O   0  0  0  0  0  0  0  0  0  0  0  0
  1  2  1  0
  2  3  1  0
  3  4  1  0
  4  5  2  0
  5  6  1  0
  6  7  2  0
  7  8  1  0
  8  9  2  0
  9 10  1  0
 10 11  1  0
 11 12  1  0
 12 13  1  0
 13 14  1  0
 14 15  2  0
 14 16  1  0
  5 17  1  0
 17 18  1  0
 18 19  2  0
 18 20  1  0
 20 21  2  0
 21 22  1  0
 22 23  2  0
 23 24  1  0
 24 25  2  0
 23 26  1  0
 26 27  1  0
 27 28  1  0
 28 29  1  0
 29 30  1  0
 30 31  1  0
 31 32  2  0
 32 33  1  0
 33 34  2  0
 34 35  1  0
 35 36  2  0
 35 37  1  0
 32 38  1  0
  2 39  1  0
 39 40  2  0
 39 41  1  0
 10  1  1  0
  9  4  1  0
 25 20  1  0
 36 31  1  0
M  END
$$$$
