
     RDKit          3D

 41 44  0  0  0  0  0  0  0  0999 V2000
   -3.9822    3.3286   15.0891 C   0  0  0  0  0  0  0  0  0  0  0  0
   -3.4861    1.9616   15.3323 C   0  0  0  0  0  0  0  0  0  0  0  0
   -2.5468    1.6708   14.2758 O   0  0  0  0  0  0  0  0  0  0  0  0
   -1.3814    2.4641   14.2772 C   0  0  0  0  0  0  0  0  0  0  0  0
   -0.1651    1.9607   13.9319 C   0  0  0  0  0  0  0  0  0  0  0  0
    0.9411    2.8170   13.9617 C   0  0  0  0  0  0  0  0  0  0  0  0
    0.7885    4.1251   14.3297 C   0  0  0  0  0  0  0  0  0  0  0  0
   -0.4784    4.6054   14.6763 C   0  0  0  0  0  0  0  0  0  0  0  0
   -1.6030    3.8026   14.6640 C   0  0  0  0  0  0  0  0  0  0  0  0
   -2.8916    4.2715   15.0082 N   0  0  0  0  0  0  0  0  0  0  0  0
   -3.1022    5.6855   15.2327 C   0  0  0  0  0  0  0  0  0  0  0  0
   -3.7038    6.3234   13.9842 C   0  0  0  0  0  0  0  0  0  0  0  0
   -2.6373    6.7613   13.0299 C   0  0  0  0  0  0  0  0  0  0  0  0
   -3.1139    7.6309   11.9495 C   0  0  0  0  0  0  0  0  0  0  0  0
   -4.3499    7.8622   11.8648 O   0  0  0  0  0  0  0  0  0  0  0  0
   -2.3019    8.2272   11.0007 O   0  0  0  0  0  0  0  0  0  0  0  0
    0.0538    0.6170   13.5241 N   0  0  0  0  0  0  0  0  0  0  0  0
    1.2314   -0.1156   13.6613 C   0  0  0  0  0  0  0  0  0  0  0  0
    2.1654    0.4196   14.3299 O   0  0  0  0  0  0  0  0  0  0  0  0
    1.3757   -1.4219   13.0612 C   0  0  0  0  0  0  0  0  0  0  0  0
    0.2507   -2.1985   12.8885 C   0  0  0  0  0  0  0  0  0  0  0  0
    0.3256   -3.4925   12.3573 C   0  0  0  0  0  0  0  0  0  0  0  0
    1.5280   -4.0239   11.9897 C   0  0  0  0  0  0  0  0  0  0  0  0
    2.6707   -3.2433   12.1589 C   0  0  0  0  0  0  0  0  0  0  0  0
    2.5777   -1.9592   12.6907 C   0  0  0  0  0  0  0  0  0  0  0  0
    1.6640   -5.2702   11.4682 O   0  0  0  0  0  0  0  0  0  0  0  0
    2.9091   -5.8655   11.1961 C   0  0  0  0  0  0  0  0  0  0  0  0
    2.7764   -7.2101   10.5919 C   0  0  0  0  0  0  0  0  0  0  0  0
    2.2552   -7.2673    9.2216 C   0  0  0  0  0  0  0  0  0  0  0  0
    2.8962   -6.6880    8.0543 C   0  0  0  0  0  0  0  0  0  0  0  0
    2.2844   -6.8374    6.7391 C   0  0  0  0  0  0  0  0  0  0  0  0
    1.0495   -6.3327    6.3688 C   0  0  0  0  0  0  0  0  0  0  0  0
    0.5496   -6.4894    5.1062 C   0  0  0  0  0  0  0  0  0  0  0  0
    1.2935   -7.1727    4.1633 C   0  0  0  0  0  0  0  0  0  0  0  0
    2.5321   -7.6991    4.4761 C   0  0  0  0  0  0  0  0  0  0  0  0
    2.9919   -7.5189    5.7476 C   0  0  0  0  0  0  0  0  0  0  0  0
    3.2471   -8.3658    3.5340 F   0  0  0  0  0  0  0  0  0  0  0  0
    0.1154   -5.4836    7.5864 Cl  0  0  0  0  0  0  0  0  0  0  0  0
   -4.5240    0.9158   15.3333 C   0  0  0  0  0  0  0  0  0  0  0  0
   -4.2561   -0.1573   14.7234 O   0  0  0  0  0  0  0  0  0  0  0  0
   -5.7583    1.0751   15.9725 O   0  0  0  0  0  0  0  0  0  0  0  0
  1  2  1  0
  2  3  1  0
  3  4  1  0
  4  5  2  0
  5  6  1  0
  6  7  2  0
  7  8  1  0
  8  9  2  0
  9 10  1  0
 10 11  1  0
 11 12  1  0
 12 13  1  0
 13 14  1  0
 14 15  2  0
 14 16  1  0
  5 17  1  0
 17 18  1  0
 18 19  2  0
 18 20  1  0
 20 21  2  0
 21 22  1  0
 22 23  2  0
 23 24  1  0
 24 25  2  0
 23 26  1  0
 26 27  1  0
 27 28  1  0
 28 29  1  0
 29 30  1  0
 30 31  1  0
 31 32  2  0
 32 33  1  0
 33 34  2  0
 34 35  1  0
 35 36  2  0
 35 37  1  0
 32 38  1  0
  2 39  1  0
 39 40  2  0
 39 41  1  0
 10  1  1  0
  9  4  1  0
 25 20  1  0
 36 31  1  0
M  END
$$$$
