
     RDKit          3D

 41 44  0  0  0  0  0  0  0  0999 V2000
    5.5553   -1.7803   15.9401 C   0  0  0  0  0  0  0  0  0  0  0  0
    4.1866   -1.7838   16.4884 C   0  0  0  0  0  0  0  0  0  0  0  0
    3.2940   -1.6104   15.3676 O   0  0  0  0  0  0  0  0  0  0  0  0
    3.2928   -2.6679   14.4354 C   0  0  0  0  0  0  0  0  0  0  0  0
    2.1577   -3.0704   13.8019 C   0  0  0  0  0  0  0  0  0  0  0  0
    2.2447   -4.1298   12.8919 C   0  0  0  0  0  0  0  0  0  0  0  0
    3.4475   -4.7353   12.6544 C   0  0  0  0  0  0  0  0  0  0  0  0
    4.5921   -4.2919   13.3244 C   0  0  0  0  0  0  0  0  0  0  0  0
    4.5614   -3.2508   14.2325 C   0  0  0  0  0  0  0  0  0  0  0  0
    5.7085   -2.7873   14.9166 N   0  0  0  0  0  0  0  0  0  0  0  0
    7.0132   -3.2976   14.5537 C   0  0  0  0  0  0  0  0  0  0  0  0
    6.8913   -4.2112   13.3380 C   0  0  0  0  0  0  0  0  0  0  0  0
    7.0007   -5.6520   13.7278 C   0  0  0  0  0  0  0  0  0  0  0  0
    7.5433   -6.5216   12.6790 C   0  0  0  0  0  0  0  0  0  0  0  0
    8.7917   -6.5518   12.5092 O   0  0  0  0  0  0  0  0  0  0  0  0
    6.7819   -7.3244   11.8477 O   0  0  0  0  0  0  0  0  0  0  0  0
    0.8837   -2.4701   13.9927 N   0  0  0  0  0  0  0  0  0  0  0  0
   -0.1297   -2.3433   13.0445 C   0  0  0  0  0  0  0  0  0  0  0  0
   -0.3506   -3.3470   12.3031 O   0  0  0  0  0  0  0  0  0  0  0  0
   -0.8856   -1.1190   12.9145 C   0  0  0  0  0  0  0  0  0  0  0  0
   -2.2534   -1.1657   13.0750 C   0  0  0  0  0  0  0  0  0  0  0  0
   -3.0513   -0.0255   12.9155 C   0  0  0  0  0  0  0  0  0  0  0  0
   -2.4890    1.1766   12.5959 C   0  0  0  0  0  0  0  0  0  0  0  0
   -1.1054    1.2326   12.4343 C   0  0  0  0  0  0  0  0  0  0  0  0
   -0.3276    0.0882   12.5948 C   0  0  0  0  0  0  0  0  0  0  0  0
   -3.2091    2.3158   12.4298 O   0  0  0  0  0  0  0  0  0  0  0  0
   -4.6110    2.3376   12.3169 C   0  0  0  0  0  0  0  0  0  0  0  0
   -5.2499    3.2010   13.3352 C   0  0  0  0  0  0  0  0  0  0  0  0
   -5.4503    2.6131   14.6645 C   0  0  0  0  0  0  0  0  0  0  0  0
   -6.1168    3.2635   15.7787 C   0  0  0  0  0  0  0  0  0  0  0  0
   -6.7613    2.4596   16.8107 C   0  0  0  0  0  0  0  0  0  0  0  0
   -6.1168    1.8703   17.8850 C   0  0  0  0  0  0  0  0  0  0  0  0
   -6.7916    1.1502   18.8310 C   0  0  0  0  0  0  0  0  0  0  0  0
   -8.1606    1.0000   18.7186 C   0  0  0  0  0  0  0  0  0  0  0  0
   -8.8568    1.5649   17.6672 C   0  0  0  0  0  0  0  0  0  0  0  0
   -8.1433    2.2751   16.7468 C   0  0  0  0  0  0  0  0  0  0  0  0
  -10.2020    1.4061   17.5768 F   0  0  0  0  0  0  0  0  0  0  0  0
   -4.3770    2.0600   17.9983 Cl  0  0  0  0  0  0  0  0  0  0  0  0
    3.9097   -0.7227   17.4725 C   0  0  0  0  0  0  0  0  0  0  0  0
    2.7735   -0.1737   17.4180 O   0  0  0  0  0  0  0  0  0  0  0  0
    4.8422   -0.3211   18.4351 O   0  0  0  0  0  0  0  0  0  0  0  0
  1  2  1  0
  2  3  1  0
  3  4  1  0
  4  5  2  0
  5  6  1  0
  6  7  2  0
  7  8  1  0
  8  9  2  0
  9 10  1  0
 10 11  1  0
 11 12  1  0
 12 13  1  0
 13 14  1  0
 14 15  2  0
 14 16  1  0
  5 17  1  0
 17 18  1  0
 18 19  2  0
 18 20  1  0
 20 21  2  0
 21 22  1  0
 22 23  2  0
 23 24  1  0
 24 25  2  0
 23 26  1  0
 26 27  1  0
 27 28  1  0
 28 29  1  0
 29 30  1  0
 30 31  1  0
 31 32  2  0
 32 33  1  0
 33 34  2  0
 34 35  1  0
 35 36  2  0
 35 37  1  0
 32 38  1  0
  2 39  1  0
 39 40  2  0
 39 41  1  0
 10  1  1  0
  9  4  1  0
 25 20  1  0
 36 31  1  0
M  END
$$$$
