
     RDKit          3D

 41 44  0  0  0  0  0  0  0  0999 V2000
   -2.1347   -3.0282   14.3176 C   0  0  0  0  0  0  0  0  0  0  0  0
   -0.8406   -2.7805   13.6558 C   0  0  0  0  0  0  0  0  0  0  0  0
   -1.1062   -1.8862   12.5545 O   0  0  0  0  0  0  0  0  0  0  0  0
   -1.5547   -0.6014   12.9228 C   0  0  0  0  0  0  0  0  0  0  0  0
   -1.1848    0.5157   12.2392 C   0  0  0  0  0  0  0  0  0  0  0  0
   -1.6745    1.7525   12.6730 C   0  0  0  0  0  0  0  0  0  0  0  0
   -2.5042    1.8216   13.7577 C   0  0  0  0  0  0  0  0  0  0  0  0
   -2.8626    0.6507   14.4332 C   0  0  0  0  0  0  0  0  0  0  0  0
   -2.4071   -0.5954   14.0468 C   0  0  0  0  0  0  0  0  0  0  0  0
   -2.7613   -1.7896   14.7155 N   0  0  0  0  0  0  0  0  0  0  0  0
   -3.7689   -1.7567   15.7537 C   0  0  0  0  0  0  0  0  0  0  0  0
   -5.1520   -1.6071   15.1275 C   0  0  0  0  0  0  0  0  0  0  0  0
   -5.9003   -2.9030   15.1464 C   0  0  0  0  0  0  0  0  0  0  0  0
   -7.2190   -2.8481   14.5073 C   0  0  0  0  0  0  0  0  0  0  0  0
   -7.4562   -3.6322   13.5496 O   0  0  0  0  0  0  0  0  0  0  0  0
   -8.2400   -1.9904   14.8778 O   0  0  0  0  0  0  0  0  0  0  0  0
   -0.3413    0.5065   11.0955 N   0  0  0  0  0  0  0  0  0  0  0  0
    0.6904    1.3995   10.8120 C   0  0  0  0  0  0  0  0  0  0  0  0
    1.0796    2.1459   11.7594 O   0  0  0  0  0  0  0  0  0  0  0  0
    1.2802    1.4699    9.4951 C   0  0  0  0  0  0  0  0  0  0  0  0
    1.1373    0.3926    8.6478 C   0  0  0  0  0  0  0  0  0  0  0  0
    1.7239    0.3753    7.3759 C   0  0  0  0  0  0  0  0  0  0  0  0
    2.4587    1.4381    6.9354 C   0  0  0  0  0  0  0  0  0  0  0  0
    2.6057    2.5330    7.7858 C   0  0  0  0  0  0  0  0  0  0  0  0
    2.0170    2.5321    9.0482 C   0  0  0  0  0  0  0  0  0  0  0  0
    3.0496    1.4806    5.7136 O   0  0  0  0  0  0  0  0  0  0  0  0
    2.9273    0.4567    4.7569 C   0  0  0  0  0  0  0  0  0  0  0  0
    3.3846    0.8766    3.4133 C   0  0  0  0  0  0  0  0  0  0  0  0
    3.8469   -0.1862    2.5136 C   0  0  0  0  0  0  0  0  0  0  0  0
    3.4303   -1.5761    2.5717 C   0  0  0  0  0  0  0  0  0  0  0  0
    3.7021   -2.4647    1.4478 C   0  0  0  0  0  0  0  0  0  0  0  0
    3.2870   -2.2555    0.1437 C   0  0  0  0  0  0  0  0  0  0  0  0
    3.6022   -3.1207   -0.8666 C   0  0  0  0  0  0  0  0  0  0  0  0
    4.3581   -4.2429   -0.5860 C   0  0  0  0  0  0  0  0  0  0  0  0
    4.7994   -4.5037    0.6972 C   0  0  0  0  0  0  0  0  0  0  0  0
    4.4617   -3.6135    1.6740 C   0  0  0  0  0  0  0  0  0  0  0  0
    5.5421   -5.6114    0.9506 F   0  0  0  0  0  0  0  0  0  0  0  0
    2.3146   -0.8338   -0.1862 Cl  0  0  0  0  0  0  0  0  0  0  0  0
   -0.1732   -3.9834   13.1280 C   0  0  0  0  0  0  0  0  0  0  0  0
    0.1811   -3.9564   11.9160 O   0  0  0  0  0  0  0  0  0  0  0  0
    0.0711   -5.1178   13.9096 O   0  0  0  0  0  0  0  0  0  0  0  0
  1  2  1  0
  2  3  1  0
  3  4  1  0
  4  5  2  0
  5  6  1  0
  6  7  2  0
  7  8  1  0
  8  9  2  0
  9 10  1  0
 10 11  1  0
 11 12  1  0
 12 13  1  0
 13 14  1  0
 14 15  2  0
 14 16  1  0
  5 17  1  0
 17 18  1  0
 18 19  2  0
 18 20  1  0
 20 21  2  0
 21 22  1  0
 22 23  2  0
 23 24  1  0
 24 25  2  0
 23 26  1  0
 26 27  1  0
 27 28  1  0
 28 29  1  0
 29 30  1  0
 30 31  1  0
 31 32  2  0
 32 33  1  0
 33 34  2  0
 34 35  1  0
 35 36  2  0
 35 37  1  0
 32 38  1  0
  2 39  1  0
 39 40  2  0
 39 41  1  0
 10  1  1  0
  9  4  1  0
 25 20  1  0
 36 31  1  0
M  END
$$$$
