
     RDKit          3D

 41 44  0  0  0  0  0  0  0  0999 V2000
    7.0023    2.6068   20.6585 C   0  0  0  0  0  0  0  0  0  0  0  0
    7.2016    2.4047   19.2117 C   0  0  0  0  0  0  0  0  0  0  0  0
    6.4011    1.2622   18.8418 O   0  0  0  0  0  0  0  0  0  0  0  0
    5.0089    1.4396   18.9749 C   0  0  0  0  0  0  0  0  0  0  0  0
    4.1246    0.8971   18.0942 C   0  0  0  0  0  0  0  0  0  0  0  0
    2.7591    1.1235   18.2991 C   0  0  0  0  0  0  0  0  0  0  0  0
    2.3383    1.8726   19.3629 C   0  0  0  0  0  0  0  0  0  0  0  0
    3.2780    2.4122   20.2469 C   0  0  0  0  0  0  0  0  0  0  0  0
    4.6374    2.2193   20.0903 C   0  0  0  0  0  0  0  0  0  0  0  0
    5.6013    2.7543   20.9754 N   0  0  0  0  0  0  0  0  0  0  0  0
    5.1709    3.4013   22.1962 C   0  0  0  0  0  0  0  0  0  0  0  0
    4.4603    4.7101   21.8651 C   0  0  0  0  0  0  0  0  0  0  0  0
    5.4406    5.8143   21.6216 C   0  0  0  0  0  0  0  0  0  0  0  0
    4.8352    7.0693   21.1642 C   0  0  0  0  0  0  0  0  0  0  0  0
    4.3517    7.8524   22.0252 O   0  0  0  0  0  0  0  0  0  0  0  0
    4.7510    7.4684   19.8418 O   0  0  0  0  0  0  0  0  0  0  0  0
    4.4988    0.0959   16.9816 N   0  0  0  0  0  0  0  0  0  0  0  0
    3.7013   -0.8335   16.3164 C   0  0  0  0  0  0  0  0  0  0  0  0
    3.9949   -2.0565   16.4714 O   0  0  0  0  0  0  0  0  0  0  0  0
    2.5962   -0.4146   15.4856 C   0  0  0  0  0  0  0  0  0  0  0  0
    1.5961   -1.3210   15.2084 C   0  0  0  0  0  0  0  0  0  0  0  0
    0.5209   -0.9958   14.3716 C   0  0  0  0  0  0  0  0  0  0  0  0
    0.4322    0.2425   13.8041 C   0  0  0  0  0  0  0  0  0  0  0  0
    1.4389    1.1662   14.0818 C   0  0  0  0  0  0  0  0  0  0  0  0
    2.5019    0.8248   14.9147 C   0  0  0  0  0  0  0  0  0  0  0  0
   -0.5854    0.6168   12.9867 O   0  0  0  0  0  0  0  0  0  0  0  0
   -1.8982    0.8452   13.4373 C   0  0  0  0  0  0  0  0  0  0  0  0
   -2.8113    1.2517   12.3456 C   0  0  0  0  0  0  0  0  0  0  0  0
   -3.3664    0.1756   11.5170 C   0  0  0  0  0  0  0  0  0  0  0  0
   -4.3461   -0.8022   11.9561 C   0  0  0  0  0  0  0  0  0  0  0  0
   -3.9042   -2.0756   12.5127 C   0  0  0  0  0  0  0  0  0  0  0  0
   -3.8895   -2.3985   13.8589 C   0  0  0  0  0  0  0  0  0  0  0  0
   -3.4857   -3.6251   14.3073 C   0  0  0  0  0  0  0  0  0  0  0  0
   -3.0766   -4.5787   13.3948 C   0  0  0  0  0  0  0  0  0  0  0  0
   -3.0691   -4.3124   12.0390 C   0  0  0  0  0  0  0  0  0  0  0  0
   -3.4804   -3.0757   11.6363 C   0  0  0  0  0  0  0  0  0  0  0  0
   -2.6647   -5.2642   11.1596 F   0  0  0  0  0  0  0  0  0  0  0  0
   -4.3970   -1.1673   15.0001 Cl  0  0  0  0  0  0  0  0  0  0  0  0
    8.5948    2.1475   18.8071 C   0  0  0  0  0  0  0  0  0  0  0  0
    8.7780    1.6869   17.6454 O   0  0  0  0  0  0  0  0  0  0  0  0
    9.6850    2.3931   19.6489 O   0  0  0  0  0  0  0  0  0  0  0  0
  1  2  1  0
  2  3  1  0
  3  4  1  0
  4  5  2  0
  5  6  1  0
  6  7  2  0
  7  8  1  0
  8  9  2  0
  9 10  1  0
 10 11  1  0
 11 12  1  0
 12 13  1  0
 13 14  1  0
 14 15  2  0
 14 16  1  0
  5 17  1  0
 17 18  1  0
 18 19  2  0
 18 20  1  0
 20 21  2  0
 21 22  1  0
 22 23  2  0
 23 24  1  0
 24 25  2  0
 23 26  1  0
 26 27  1  0
 27 28  1  0
 28 29  1  0
 29 30  1  0
 30 31  1  0
 31 32  2  0
 32 33  1  0
 33 34  2  0
 34 35  1  0
 35 36  2  0
 35 37  1  0
 32 38  1  0
  2 39  1  0
 39 40  2  0
 39 41  1  0
 10  1  1  0
  9  4  1  0
 25 20  1  0
 36 31  1  0
M  END
$$$$
