
     RDKit          3D

 41 44  0  0  0  0  0  0  0  0999 V2000
   -4.1586   -4.4368   13.8661 C   0  0  0  0  0  0  0  0  0  0  0  0
   -4.2120   -2.9699   14.0050 C   0  0  0  0  0  0  0  0  0  0  0  0
   -2.8691   -2.4871   13.7895 O   0  0  0  0  0  0  0  0  0  0  0  0
   -2.3623   -2.6904   12.4898 C   0  0  0  0  0  0  0  0  0  0  0  0
   -1.5565   -1.7798   11.8787 C   0  0  0  0  0  0  0  0  0  0  0  0
   -1.0984   -2.0596   10.5865 C   0  0  0  0  0  0  0  0  0  0  0  0
   -1.4589   -3.2236    9.9661 C   0  0  0  0  0  0  0  0  0  0  0  0
   -2.2877   -4.1351   10.6279 C   0  0  0  0  0  0  0  0  0  0  0  0
   -2.7678   -3.9077   11.9035 C   0  0  0  0  0  0  0  0  0  0  0  0
   -3.6038   -4.8188   12.5889 N   0  0  0  0  0  0  0  0  0  0  0  0
   -3.8551   -6.1260   12.0210 C   0  0  0  0  0  0  0  0  0  0  0  0
   -3.0169   -7.1746   12.7457 C   0  0  0  0  0  0  0  0  0  0  0  0
   -1.5626   -7.0238   12.4258 C   0  0  0  0  0  0  0  0  0  0  0  0
   -0.6859   -7.9488   13.1514 C   0  0  0  0  0  0  0  0  0  0  0  0
   -0.7549   -7.9807   14.4094 O   0  0  0  0  0  0  0  0  0  0  0  0
    0.2256   -8.8028   12.5555 O   0  0  0  0  0  0  0  0  0  0  0  0
   -1.1331   -0.5625   12.4775 N   0  0  0  0  0  0  0  0  0  0  0  0
    0.1600   -0.2372   12.8829 C   0  0  0  0  0  0  0  0  0  0  0  0
    0.9333   -1.2015   13.1622 O   0  0  0  0  0  0  0  0  0  0  0  0
    0.5903    1.1383   12.9833 C   0  0  0  0  0  0  0  0  0  0  0  0
   -0.3567    2.1127   13.2122 C   0  0  0  0  0  0  0  0  0  0  0  0
   -0.0148    3.4697   13.2732 C   0  0  0  0  0  0  0  0  0  0  0  0
    1.2806    3.8677   13.1084 C   0  0  0  0  0  0  0  0  0  0  0  0
    2.2451    2.8875   12.8790 C   0  0  0  0  0  0  0  0  0  0  0  0
    1.8866    1.5428   12.8195 C   0  0  0  0  0  0  0  0  0  0  0  0
    1.6734    5.1665   13.1583 O   0  0  0  0  0  0  0  0  0  0  0  0
    0.8057    6.2277   13.4736 C   0  0  0  0  0  0  0  0  0  0  0  0
    1.4642    7.5495   13.3735 C   0  0  0  0  0  0  0  0  0  0  0  0
    0.6335    8.6649   12.9064 C   0  0  0  0  0  0  0  0  0  0  0  0
    0.3042    9.8487   13.6805 C   0  0  0  0  0  0  0  0  0  0  0  0
    1.3075   10.8872   13.8841 C   0  0  0  0  0  0  0  0  0  0  0  0
    2.4820   10.7357   14.6014 C   0  0  0  0  0  0  0  0  0  0  0  0
    3.3913   11.7484   14.7285 C   0  0  0  0  0  0  0  0  0  0  0  0
    3.1378   12.9657   14.1257 C   0  0  0  0  0  0  0  0  0  0  0  0
    1.9819   13.1750   13.3982 C   0  0  0  0  0  0  0  0  0  0  0  0
    1.1028   12.1369   13.2973 C   0  0  0  0  0  0  0  0  0  0  0  0
    1.7534   14.3784   12.8129 F   0  0  0  0  0  0  0  0  0  0  0  0
    2.7749    9.1877   15.3719 Cl  0  0  0  0  0  0  0  0  0  0  0  0
   -4.6752   -2.4874   15.3179 C   0  0  0  0  0  0  0  0  0  0  0  0
   -5.9012   -2.6359   15.5826 O   0  0  0  0  0  0  0  0  0  0  0  0
   -3.8195   -1.8891   16.2493 O   0  0  0  0  0  0  0  0  0  0  0  0
  1  2  1  0
  2  3  1  0
  3  4  1  0
  4  5  2  0
  5  6  1  0
  6  7  2  0
  7  8  1  0
  8  9  2  0
  9 10  1  0
 10 11  1  0
 11 12  1  0
 12 13  1  0
 13 14  1  0
 14 15  2  0
 14 16  1  0
  5 17  1  0
 17 18  1  0
 18 19  2  0
 18 20  1  0
 20 21  2  0
 21 22  1  0
 22 23  2  0
 23 24  1  0
 24 25  2  0
 23 26  1  0
 26 27  1  0
 27 28  1  0
 28 29  1  0
 29 30  1  0
 30 31  1  0
 31 32  2  0
 32 33  1  0
 33 34  2  0
 34 35  1  0
 35 36  2  0
 35 37  1  0
 32 38  1  0
  2 39  1  0
 39 40  2  0
 39 41  1  0
 10  1  1  0
  9  4  1  0
 25 20  1  0
 36 31  1  0
M  END
$$$$
