
     RDKit          3D

 41 44  0  0  0  0  0  0  0  0999 V2000
    4.0066    5.0131   16.4733 C   0  0  0  0  0  0  0  0  0  0  0  0
    3.5916    3.9739   15.5132 C   0  0  0  0  0  0  0  0  0  0  0  0
    2.1520    4.0392   15.4331 O   0  0  0  0  0  0  0  0  0  0  0  0
    1.6373    5.2338   14.8895 C   0  0  0  0  0  0  0  0  0  0  0  0
    0.5336    5.2478   14.0935 C   0  0  0  0  0  0  0  0  0  0  0  0
    0.0902    6.4774   13.5943 C   0  0  0  0  0  0  0  0  0  0  0  0
    0.7587    7.6284   13.9077 C   0  0  0  0  0  0  0  0  0  0  0  0
    1.8884    7.5728   14.7302 C   0  0  0  0  0  0  0  0  0  0  0  0
    2.3683    6.3855   15.2492 C   0  0  0  0  0  0  0  0  0  0  0  0
    3.5065    6.3107   16.0844 N   0  0  0  0  0  0  0  0  0  0  0  0
    4.1228    7.5287   16.5650 C   0  0  0  0  0  0  0  0  0  0  0  0
    5.2450    7.9480   15.6205 C   0  0  0  0  0  0  0  0  0  0  0  0
    6.5666    7.4129   16.0754 C   0  0  0  0  0  0  0  0  0  0  0  0
    7.6433    7.5443   15.0883 C   0  0  0  0  0  0  0  0  0  0  0  0
    8.3317    8.5999   15.0864 O   0  0  0  0  0  0  0  0  0  0  0  0
    7.9686    6.5866   14.1438 O   0  0  0  0  0  0  0  0  0  0  0  0
   -0.2132    4.0893   13.7474 N   0  0  0  0  0  0  0  0  0  0  0  0
   -1.5971    3.9989   13.6090 C   0  0  0  0  0  0  0  0  0  0  0  0
   -2.2567    5.0747   13.7247 O   0  0  0  0  0  0  0  0  0  0  0  0
   -2.2434    2.7327   13.3515 C   0  0  0  0  0  0  0  0  0  0  0  0
   -1.4639    1.6013   13.2461 C   0  0  0  0  0  0  0  0  0  0  0  0
   -2.0206    0.3504   12.9506 C   0  0  0  0  0  0  0  0  0  0  0  0
   -3.3656    0.2163   12.7596 C   0  0  0  0  0  0  0  0  0  0  0  0
   -4.1614    1.3559   12.8672 C   0  0  0  0  0  0  0  0  0  0  0  0
   -3.5904    2.5923   13.1598 C   0  0  0  0  0  0  0  0  0  0  0  0
   -3.9633   -0.9687   12.4726 O   0  0  0  0  0  0  0  0  0  0  0  0
   -3.2537   -2.1660   12.2689 C   0  0  0  0  0  0  0  0  0  0  0  0
   -3.4510   -3.1377   13.3678 C   0  0  0  0  0  0  0  0  0  0  0  0
   -2.2514   -3.8195   13.8666 C   0  0  0  0  0  0  0  0  0  0  0  0
   -1.9201   -5.2141   13.6339 C   0  0  0  0  0  0  0  0  0  0  0  0
   -1.0305   -5.5773   12.5370 C   0  0  0  0  0  0  0  0  0  0  0  0
   -0.3107   -4.6846   11.7612 C   0  0  0  0  0  0  0  0  0  0  0  0
    0.5267   -5.0999   10.7637 C   0  0  0  0  0  0  0  0  0  0  0  0
    0.6645   -6.4520   10.5144 C   0  0  0  0  0  0  0  0  0  0  0  0
   -0.0295   -7.3889   11.2558 C   0  0  0  0  0  0  0  0  0  0  0  0
   -0.8536   -6.9298   12.2412 C   0  0  0  0  0  0  0  0  0  0  0  0
    0.1216   -8.7126   10.9951 F   0  0  0  0  0  0  0  0  0  0  0  0
   -0.5139   -2.9728   12.0843 Cl  0  0  0  0  0  0  0  0  0  0  0  0
    3.9755    2.5999   15.8815 C   0  0  0  0  0  0  0  0  0  0  0  0
    3.1304    1.6891   15.6548 O   0  0  0  0  0  0  0  0  0  0  0  0
    5.2124    2.2880   16.4563 O   0  0  0  0  0  0  0  0  0  0  0  0
  1  2  1  0
  2  3  1  0
  3  4  1  0
  4  5  2  0
  5  6  1  0
  6  7  2  0
  7  8  1  0
  8  9  2  0
  9 10  1  0
 10 11  1  0
 11 12  1  0
 12 13  1  0
 13 14  1  0
 14 15  2  0
 14 16  1  0
  5 17  1  0
 17 18  1  0
 18 19  2  0
 18 20  1  0
 20 21  2  0
 21 22  1  0
 22 23  2  0
 23 24  1  0
 24 25  2  0
 23 26  1  0
 26 27  1  0
 27 28  1  0
 28 29  1  0
 29 30  1  0
 30 31  1  0
 31 32  2  0
 32 33  1  0
 33 34  2  0
 34 35  1  0
 35 36  2  0
 35 37  1  0
 32 38  1  0
  2 39  1  0
 39 40  2  0
 39 41  1  0
 10  1  1  0
  9  4  1  0
 25 20  1  0
 36 31  1  0
M  END
$$$$
