
     RDKit          3D

 41 44  0  0  0  0  0  0  0  0999 V2000
    4.4110    4.4381   19.3829 C   0  0  0  0  0  0  0  0  0  0  0  0
    3.8342    3.1370   18.9975 C   0  0  0  0  0  0  0  0  0  0  0  0
    2.9129    3.3990   17.9179 O   0  0  0  0  0  0  0  0  0  0  0  0
    3.5038    3.8775   16.7308 C   0  0  0  0  0  0  0  0  0  0  0  0
    3.0476    3.5159   15.5007 C   0  0  0  0  0  0  0  0  0  0  0  0
    3.6930    4.0359   14.3734 C   0  0  0  0  0  0  0  0  0  0  0  0
    4.7540    4.8862   14.5195 C   0  0  0  0  0  0  0  0  0  0  0  0
    5.1925    5.2352   15.8008 C   0  0  0  0  0  0  0  0  0  0  0  0
    4.5911    4.7501   16.9464 C   0  0  0  0  0  0  0  0  0  0  0  0
    5.0187    5.0944   18.2493 N   0  0  0  0  0  0  0  0  0  0  0  0
    6.0234    6.1210   18.4249 C   0  0  0  0  0  0  0  0  0  0  0  0
    7.1630    5.5873   19.2873 C   0  0  0  0  0  0  0  0  0  0  0  0
    8.0029    4.6059   18.5314 C   0  0  0  0  0  0  0  0  0  0  0  0
    9.0398    3.9524   19.3367 C   0  0  0  0  0  0  0  0  0  0  0  0
    9.2557    4.3815   20.5018 O   0  0  0  0  0  0  0  0  0  0  0  0
    9.8123    2.8854   18.9125 O   0  0  0  0  0  0  0  0  0  0  0  0
    1.9402    2.6518   15.2846 N   0  0  0  0  0  0  0  0  0  0  0  0
    1.0588    2.6785   14.2053 C   0  0  0  0  0  0  0  0  0  0  0  0
    1.3965    3.3810   13.2061 O   0  0  0  0  0  0  0  0  0  0  0  0
   -0.1835    1.9415   14.2336 C   0  0  0  0  0  0  0  0  0  0  0  0
   -0.9384    1.8729   13.0829 C   0  0  0  0  0  0  0  0  0  0  0  0
   -2.1750    1.2156   13.0535 C   0  0  0  0  0  0  0  0  0  0  0  0
   -2.6698    0.6161   14.1756 C   0  0  0  0  0  0  0  0  0  0  0  0
   -1.9107    0.6789   15.3433 C   0  0  0  0  0  0  0  0  0  0  0  0
   -0.6839    1.3386   15.3548 C   0  0  0  0  0  0  0  0  0  0  0  0
   -3.8600   -0.0367   14.2089 O   0  0  0  0  0  0  0  0  0  0  0  0
   -4.6247   -0.3141   13.0614 C   0  0  0  0  0  0  0  0  0  0  0  0
   -4.8704   -1.7622   12.8784 C   0  0  0  0  0  0  0  0  0  0  0  0
   -3.7927   -2.5389   12.2555 C   0  0  0  0  0  0  0  0  0  0  0  0
   -3.8717   -3.9423   11.8906 C   0  0  0  0  0  0  0  0  0  0  0  0
   -2.7339   -4.5929   11.2511 C   0  0  0  0  0  0  0  0  0  0  0  0
   -2.4700   -4.5894    9.8920 C   0  0  0  0  0  0  0  0  0  0  0  0
   -1.3665   -5.2000    9.3647 C   0  0  0  0  0  0  0  0  0  0  0  0
   -0.4814   -5.8444   10.2078 C   0  0  0  0  0  0  0  0  0  0  0  0
   -0.6938   -5.8813   11.5726 C   0  0  0  0  0  0  0  0  0  0  0  0
   -1.8075   -5.2586   12.0552 C   0  0  0  0  0  0  0  0  0  0  0  0
    0.1892   -6.5187   12.3830 F   0  0  0  0  0  0  0  0  0  0  0  0
   -3.6156   -3.7800    8.8393 Cl  0  0  0  0  0  0  0  0  0  0  0  0
    3.1064    2.4383   20.0713 C   0  0  0  0  0  0  0  0  0  0  0  0
    2.0393    1.8452   19.7478 O   0  0  0  0  0  0  0  0  0  0  0  0
    3.5529    2.4148   21.3971 O   0  0  0  0  0  0  0  0  0  0  0  0
  1  2  1  0
  2  3  1  0
  3  4  1  0
  4  5  2  0
  5  6  1  0
  6  7  2  0
  7  8  1  0
  8  9  2  0
  9 10  1  0
 10 11  1  0
 11 12  1  0
 12 13  1  0
 13 14  1  0
 14 15  2  0
 14 16  1  0
  5 17  1  0
 17 18  1  0
 18 19  2  0
 18 20  1  0
 20 21  2  0
 21 22  1  0
 22 23  2  0
 23 24  1  0
 24 25  2  0
 23 26  1  0
 26 27  1  0
 27 28  1  0
 28 29  1  0
 29 30  1  0
 30 31  1  0
 31 32  2  0
 32 33  1  0
 33 34  2  0
 34 35  1  0
 35 36  2  0
 35 37  1  0
 32 38  1  0
  2 39  1  0
 39 40  2  0
 39 41  1  0
 10  1  1  0
  9  4  1  0
 25 20  1  0
 36 31  1  0
M  END
$$$$
