
     RDKit          3D

 37 40  0  0  0  0  0  0  0  0999 V2000
    4.3745   -1.2742    7.2296 C   0  0  0  0  0  0  0  0  0  0  0  0
    3.2805   -0.4481    7.8936 C   0  0  0  0  0  0  0  0  0  0  0  0
    2.1261   -0.3726    6.9728 C   0  0  0  0  0  0  0  0  0  0  0  0
    1.5465   -1.4837    6.4025 C   0  0  0  0  0  0  0  0  0  0  0  0
    0.4605   -1.3788    5.5341 C   0  0  0  0  0  0  0  0  0  0  0  0
   -0.0523   -0.1388    5.2333 C   0  0  0  0  0  0  0  0  0  0  0  0
    0.5034    1.0165    5.7886 C   0  0  0  0  0  0  0  0  0  0  0  0
    1.5657    0.8563    6.6327 C   0  0  0  0  0  0  0  0  0  0  0  0
   -0.0374    2.3693    5.4756 C   0  0  0  0  0  0  0  0  0  0  0  0
    0.8097    3.0016    4.5988 F   0  0  0  0  0  0  0  0  0  0  0  0
   -0.0179    3.0958    6.6724 F   0  0  0  0  0  0  0  0  0  0  0  0
   -1.3328    2.3070    5.0353 F   0  0  0  0  0  0  0  0  0  0  0  0
   -0.1364   -2.5985    4.9396 C   0  0  0  0  0  0  0  0  0  0  0  0
    0.8184   -3.6121    4.9967 F   0  0  0  0  0  0  0  0  0  0  0  0
   -0.5832   -2.4079    3.6637 F   0  0  0  0  0  0  0  0  0  0  0  0
   -1.2130   -3.0498    5.6900 F   0  0  0  0  0  0  0  0  0  0  0  0
    3.0244   -0.9422    9.1373 O   0  0  0  0  0  0  0  0  0  0  0  0
    2.9422    0.1139   10.0567 C   0  0  0  0  0  0  0  0  0  0  0  0
    1.9483   -0.1907   11.1218 C   0  0  0  0  0  0  0  0  0  0  0  0
    2.6284   -0.6082   12.3158 N   0  0  0  0  0  0  0  0  0  0  0  0
    3.5066    0.4196   12.8432 C   0  0  0  0  0  0  0  0  0  0  0  0
    4.2765    1.0139   11.7115 C   0  0  0  0  0  0  0  0  0  0  0  0
    4.2473    0.2324   10.5638 O   0  0  0  0  0  0  0  0  0  0  0  0
    1.8136   -1.2044   13.3251 C   0  0  0  0  0  0  0  0  0  0  0  0
    2.3145   -2.6164   13.5187 C   0  0  0  0  0  0  0  0  0  0  0  0
    1.7171   -3.5432   14.2829 N   0  0  0  0  0  0  0  0  0  0  0  0
    2.4232   -4.6759   14.2359 C   0  0  0  0  0  0  0  0  0  0  0  0
    2.1386   -5.7251   14.8335 O   0  0  0  0  0  0  0  0  0  0  0  0
    3.4748   -4.4398   13.4270 N   0  0  0  0  0  0  0  0  0  0  0  0
    3.4097   -3.1903   12.9913 N   0  0  0  0  0  0  0  0  0  0  0  0
    0.8772    0.7948   11.3120 C   0  0  0  0  0  0  0  0  0  0  0  0
    0.9846    2.1142   10.9628 C   0  0  0  0  0  0  0  0  0  0  0  0
   -0.0517    3.0321   11.1246 C   0  0  0  0  0  0  0  0  0  0  0  0
   -1.2439    2.6299   11.6537 C   0  0  0  0  0  0  0  0  0  0  0  0
   -1.3933    1.3165   12.0167 C   0  0  0  0  0  0  0  0  0  0  0  0
   -0.3603    0.4222   11.8502 C   0  0  0  0  0  0  0  0  0  0  0  0
   -2.2732    3.5005   11.8243 F   0  0  0  0  0  0  0  0  0  0  0  0
  1  2  1  0
  2  3  1  0
  3  4  2  0
  4  5  1  0
  5  6  2  0
  6  7  1  0
  7  8  2  0
  7  9  1  0
  9 10  1  0
  9 11  1  0
  9 12  1  0
  5 13  1  0
 13 14  1  0
 13 15  1  0
 13 16  1  0
  2 17  1  0
 17 18  1  0
 18 19  1  0
 19 20  1  0
 20 21  1  0
 21 22  1  0
 22 23  1  0
 20 24  1  0
 24 25  1  0
 25 26  2  0
 26 27  1  0
 27 28  2  0
 27 29  1  0
 29 30  1  0
 19 31  1  0
 31 32  2  0
 32 33  1  0
 33 34  2  0
 34 35  1  0
 35 36  2  0
 34 37  1  0
  8  3  1  0
 23 18  1  0
 30 25  1  0
 36 31  1  0
M  END
$$$$
