
     RDKit          3D

 37 40  0  0  0  0  0  0  0  0999 V2000
   -0.3180   -2.5653    8.7964 C   0  0  0  0  0  0  0  0  0  0  0  0
    0.7383   -2.9964    7.7871 C   0  0  0  0  0  0  0  0  0  0  0  0
    1.0908   -1.8293    6.9503 C   0  0  0  0  0  0  0  0  0  0  0  0
    0.2671   -0.7362    6.8011 C   0  0  0  0  0  0  0  0  0  0  0  0
    0.6268    0.3477    6.0008 C   0  0  0  0  0  0  0  0  0  0  0  0
    1.8326    0.3344    5.3399 C   0  0  0  0  0  0  0  0  0  0  0  0
    2.7007   -0.7534    5.4618 C   0  0  0  0  0  0  0  0  0  0  0  0
    2.2987   -1.7882    6.2582 C   0  0  0  0  0  0  0  0  0  0  0  0
    4.0116   -0.7872    4.7542 C   0  0  0  0  0  0  0  0  0  0  0  0
    4.9793   -1.2362    5.6191 F   0  0  0  0  0  0  0  0  0  0  0  0
    4.3255    0.5376    4.4277 F   0  0  0  0  0  0  0  0  0  0  0  0
    3.9407   -1.5079    3.5917 F   0  0  0  0  0  0  0  0  0  0  0  0
   -0.2872    1.5069    5.8648 C   0  0  0  0  0  0  0  0  0  0  0  0
   -1.5478    1.1104    6.3074 F   0  0  0  0  0  0  0  0  0  0  0  0
   -0.3395    2.0003    4.5929 F   0  0  0  0  0  0  0  0  0  0  0  0
    0.0951    2.5503    6.6961 F   0  0  0  0  0  0  0  0  0  0  0  0
    1.7714   -3.6031    8.4360 O   0  0  0  0  0  0  0  0  0  0  0  0
    2.3653   -2.6975    9.3275 C   0  0  0  0  0  0  0  0  0  0  0  0
    1.5881   -2.6187   10.5943 C   0  0  0  0  0  0  0  0  0  0  0  0
    2.2427   -3.3888   11.6145 N   0  0  0  0  0  0  0  0  0  0  0  0
    3.5767   -2.8999   11.9098 C   0  0  0  0  0  0  0  0  0  0  0  0
    4.2748   -2.6157   10.6219 C   0  0  0  0  0  0  0  0  0  0  0  0
    3.6591   -3.2080    9.5270 O   0  0  0  0  0  0  0  0  0  0  0  0
    1.4789   -3.6450   12.7932 C   0  0  0  0  0  0  0  0  0  0  0  0
    2.1656   -2.9230   13.9287 C   0  0  0  0  0  0  0  0  0  0  0  0
    3.2917   -3.3363   14.5296 N   0  0  0  0  0  0  0  0  0  0  0  0
    3.6211   -2.4712   15.4924 C   0  0  0  0  0  0  0  0  0  0  0  0
    4.6104   -2.5654   16.2349 O   0  0  0  0  0  0  0  0  0  0  0  0
    2.6787   -1.5080   15.4823 N   0  0  0  0  0  0  0  0  0  0  0  0
    1.7951   -1.7814   14.5337 N   0  0  0  0  0  0  0  0  0  0  0  0
    1.1379   -1.2812   10.9981 C   0  0  0  0  0  0  0  0  0  0  0  0
    1.6419   -0.1186   10.4798 C   0  0  0  0  0  0  0  0  0  0  0  0
    1.1845    1.1438   10.8537 C   0  0  0  0  0  0  0  0  0  0  0  0
    0.1876    1.2627   11.7786 C   0  0  0  0  0  0  0  0  0  0  0  0
   -0.3448    0.1228   12.3226 C   0  0  0  0  0  0  0  0  0  0  0  0
    0.1176   -1.1167   11.9425 C   0  0  0  0  0  0  0  0  0  0  0  0
   -0.2798    2.4790   12.1642 F   0  0  0  0  0  0  0  0  0  0  0  0
  1  2  1  0
  2  3  1  0
  3  4  2  0
  4  5  1  0
  5  6  2  0
  6  7  1  0
  7  8  2  0
  7  9  1  0
  9 10  1  0
  9 11  1  0
  9 12  1  0
  5 13  1  0
 13 14  1  0
 13 15  1  0
 13 16  1  0
  2 17  1  0
 17 18  1  0
 18 19  1  0
 19 20  1  0
 20 21  1  0
 21 22  1  0
 22 23  1  0
 20 24  1  0
 24 25  1  0
 25 26  2  0
 26 27  1  0
 27 28  2  0
 27 29  1  0
 29 30  1  0
 19 31  1  0
 31 32  2  0
 32 33  1  0
 33 34  2  0
 34 35  1  0
 35 36  2  0
 34 37  1  0
  8  3  1  0
 23 18  1  0
 30 25  1  0
 36 31  1  0
M  END
$$$$
