
     RDKit          3D

 37 40  0  0  0  0  0  0  0  0999 V2000
    4.8410   -2.1916    6.5434 C   0  0  0  0  0  0  0  0  0  0  0  0
    4.2111   -1.4333    7.7046 C   0  0  0  0  0  0  0  0  0  0  0  0
    2.8965   -0.9158    7.2682 C   0  0  0  0  0  0  0  0  0  0  0  0
    2.3391    0.2380    7.7720 C   0  0  0  0  0  0  0  0  0  0  0  0
    1.0945    0.6978    7.3425 C   0  0  0  0  0  0  0  0  0  0  0  0
    0.3984   -0.0115    6.3921 C   0  0  0  0  0  0  0  0  0  0  0  0
    0.9250   -1.1878    5.8526 C   0  0  0  0  0  0  0  0  0  0  0  0
    2.1475   -1.5927    6.3089 C   0  0  0  0  0  0  0  0  0  0  0  0
    0.1868   -1.9709    4.8220 C   0  0  0  0  0  0  0  0  0  0  0  0
   -1.0813   -1.4603    4.6905 F   0  0  0  0  0  0  0  0  0  0  0  0
    0.0629   -3.2734    5.3205 F   0  0  0  0  0  0  0  0  0  0  0  0
    0.8773   -2.0300    3.6407 F   0  0  0  0  0  0  0  0  0  0  0  0
    0.5270    1.9448    7.9087 C   0  0  0  0  0  0  0  0  0  0  0  0
    0.5384    1.8266    9.2973 F   0  0  0  0  0  0  0  0  0  0  0  0
   -0.7265    2.2211    7.4437 F   0  0  0  0  0  0  0  0  0  0  0  0
    1.3262    3.0407    7.6153 F   0  0  0  0  0  0  0  0  0  0  0  0
    4.2068   -2.2201    8.8170 O   0  0  0  0  0  0  0  0  0  0  0  0
    3.6543   -1.5112    9.8939 C   0  0  0  0  0  0  0  0  0  0  0  0
    2.9062   -2.4259   10.7987 C   0  0  0  0  0  0  0  0  0  0  0  0
    3.7013   -2.7197   11.9580 N   0  0  0  0  0  0  0  0  0  0  0  0
    4.0178   -1.5324   12.7300 C   0  0  0  0  0  0  0  0  0  0  0  0
    4.4348   -0.4511   11.7901 C   0  0  0  0  0  0  0  0  0  0  0  0
    4.7635   -0.9252   10.5268 O   0  0  0  0  0  0  0  0  0  0  0  0
    3.2451   -3.7990   12.7736 C   0  0  0  0  0  0  0  0  0  0  0  0
    2.7683   -3.1971   14.0746 C   0  0  0  0  0  0  0  0  0  0  0  0
    1.9989   -3.8284   14.9742 N   0  0  0  0  0  0  0  0  0  0  0  0
    1.7595   -3.0098   16.0021 C   0  0  0  0  0  0  0  0  0  0  0  0
    1.0797   -3.2908   17.0009 O   0  0  0  0  0  0  0  0  0  0  0  0
    2.3945   -1.8532   15.7280 N   0  0  0  0  0  0  0  0  0  0  0  0
    3.0070   -1.9660   14.5585 N   0  0  0  0  0  0  0  0  0  0  0  0
    1.5046   -2.0775   11.0609 C   0  0  0  0  0  0  0  0  0  0  0  0
    0.4644   -2.9590   10.9385 C   0  0  0  0  0  0  0  0  0  0  0  0
   -0.8585   -2.6203   11.2178 C   0  0  0  0  0  0  0  0  0  0  0  0
   -1.1666   -1.3577   11.6352 C   0  0  0  0  0  0  0  0  0  0  0  0
   -0.1540   -0.4439   11.7709 C   0  0  0  0  0  0  0  0  0  0  0  0
    1.1474   -0.7941   11.4915 C   0  0  0  0  0  0  0  0  0  0  0  0
   -2.4464   -0.9965   11.9150 F   0  0  0  0  0  0  0  0  0  0  0  0
  1  2  1  0
  2  3  1  0
  3  4  2  0
  4  5  1  0
  5  6  2  0
  6  7  1  0
  7  8  2  0
  7  9  1  0
  9 10  1  0
  9 11  1  0
  9 12  1  0
  5 13  1  0
 13 14  1  0
 13 15  1  0
 13 16  1  0
  2 17  1  0
 17 18  1  0
 18 19  1  0
 19 20  1  0
 20 21  1  0
 21 22  1  0
 22 23  1  0
 20 24  1  0
 24 25  1  0
 25 26  2  0
 26 27  1  0
 27 28  2  0
 27 29  1  0
 29 30  1  0
 19 31  1  0
 31 32  2  0
 32 33  1  0
 33 34  2  0
 34 35  1  0
 35 36  2  0
 34 37  1  0
  8  3  1  0
 23 18  1  0
 30 25  1  0
 36 31  1  0
M  END
$$$$
