
     RDKit          3D

 37 40  0  0  0  0  0  0  0  0999 V2000
    1.4052    2.5077    6.1512 C   0  0  0  0  0  0  0  0  0  0  0  0
    1.5858    1.8562    7.5162 C   0  0  0  0  0  0  0  0  0  0  0  0
    1.4146    0.3954    7.3646 C   0  0  0  0  0  0  0  0  0  0  0  0
    1.7188   -0.5038    8.3620 C   0  0  0  0  0  0  0  0  0  0  0  0
    1.5499   -1.8769    8.1863 C   0  0  0  0  0  0  0  0  0  0  0  0
    1.0678   -2.3552    6.9906 C   0  0  0  0  0  0  0  0  0  0  0  0
    0.7457   -1.4801    5.9503 C   0  0  0  0  0  0  0  0  0  0  0  0
    0.9304   -0.1453    6.1759 C   0  0  0  0  0  0  0  0  0  0  0  0
    0.2220   -1.9782    4.6472 C   0  0  0  0  0  0  0  0  0  0  0  0
   -0.1311   -3.2989    4.7783 F   0  0  0  0  0  0  0  0  0  0  0  0
    1.2854   -1.9186    3.7383 F   0  0  0  0  0  0  0  0  0  0  0  0
   -0.7898   -1.1865    4.1726 F   0  0  0  0  0  0  0  0  0  0  0  0
    1.8887   -2.8138    9.2839 C   0  0  0  0  0  0  0  0  0  0  0  0
    0.6947   -3.2718    9.8378 F   0  0  0  0  0  0  0  0  0  0  0  0
    2.6952   -2.2556   10.2337 F   0  0  0  0  0  0  0  0  0  0  0  0
    2.5393   -3.9408    8.8017 F   0  0  0  0  0  0  0  0  0  0  0  0
    2.7612    2.2682    8.0686 O   0  0  0  0  0  0  0  0  0  0  0  0
    2.5494    2.6415    9.4040 C   0  0  0  0  0  0  0  0  0  0  0  0
    1.7503    1.6097   10.1193 C   0  0  0  0  0  0  0  0  0  0  0  0
    2.6159    0.8022   10.9324 N   0  0  0  0  0  0  0  0  0  0  0  0
    3.3063    1.5761   11.9473 C   0  0  0  0  0  0  0  0  0  0  0  0
    3.8202    2.8296   11.3219 C   0  0  0  0  0  0  0  0  0  0  0  0
    3.8437    2.7753    9.9344 O   0  0  0  0  0  0  0  0  0  0  0  0
    2.0467   -0.3997   11.4516 C   0  0  0  0  0  0  0  0  0  0  0  0
    1.3554   -0.0369   12.7449 C   0  0  0  0  0  0  0  0  0  0  0  0
    0.2199   -0.5961   13.1897 N   0  0  0  0  0  0  0  0  0  0  0  0
   -0.1172   -0.0419   14.3572 C   0  0  0  0  0  0  0  0  0  0  0  0
   -1.1160   -0.3374   15.0308 O   0  0  0  0  0  0  0  0  0  0  0  0
    0.8301    0.8757   14.6346 N   0  0  0  0  0  0  0  0  0  0  0  0
    1.7240    0.8794   13.6567 N   0  0  0  0  0  0  0  0  0  0  0  0
    0.5201    2.0764   10.7701 C   0  0  0  0  0  0  0  0  0  0  0  0
   -0.6792    1.4208   10.6924 C   0  0  0  0  0  0  0  0  0  0  0  0
   -1.8324    1.8623   11.3389 C   0  0  0  0  0  0  0  0  0  0  0  0
   -1.7995    2.9992   12.0936 C   0  0  0  0  0  0  0  0  0  0  0  0
   -0.6178    3.6861   12.1977 C   0  0  0  0  0  0  0  0  0  0  0  0
    0.5124    3.2368   11.5533 C   0  0  0  0  0  0  0  0  0  0  0  0
   -2.9066    3.4557   12.7359 F   0  0  0  0  0  0  0  0  0  0  0  0
  1  2  1  0
  2  3  1  0
  3  4  2  0
  4  5  1  0
  5  6  2  0
  6  7  1  0
  7  8  2  0
  7  9  1  0
  9 10  1  0
  9 11  1  0
  9 12  1  0
  5 13  1  0
 13 14  1  0
 13 15  1  0
 13 16  1  0
  2 17  1  0
 17 18  1  0
 18 19  1  0
 19 20  1  0
 20 21  1  0
 21 22  1  0
 22 23  1  0
 20 24  1  0
 24 25  1  0
 25 26  2  0
 26 27  1  0
 27 28  2  0
 27 29  1  0
 29 30  1  0
 19 31  1  0
 31 32  2  0
 32 33  1  0
 33 34  2  0
 34 35  1  0
 35 36  2  0
 34 37  1  0
  8  3  1  0
 23 18  1  0
 30 25  1  0
 36 31  1  0
M  END
$$$$
