
     RDKit          3D

 37 40  0  0  0  0  0  0  0  0999 V2000
    4.8153    0.0099    6.4638 C   0  0  0  0  0  0  0  0  0  0  0  0
    4.0571   -0.3429    7.7369 C   0  0  0  0  0  0  0  0  0  0  0  0
    2.7252   -0.8629    7.3603 C   0  0  0  0  0  0  0  0  0  0  0  0
    1.7993   -0.1208    6.6619 C   0  0  0  0  0  0  0  0  0  0  0  0
    0.5492   -0.6389    6.3252 C   0  0  0  0  0  0  0  0  0  0  0  0
    0.2230   -1.9225    6.6952 C   0  0  0  0  0  0  0  0  0  0  0  0
    1.1309   -2.7126    7.4047 C   0  0  0  0  0  0  0  0  0  0  0  0
    2.3409   -2.1555    7.7086 C   0  0  0  0  0  0  0  0  0  0  0  0
    0.7970   -4.1057    7.8150 C   0  0  0  0  0  0  0  0  0  0  0  0
    0.4821   -4.8411    6.6987 F   0  0  0  0  0  0  0  0  0  0  0  0
   -0.3583   -4.0261    8.6021 F   0  0  0  0  0  0  0  0  0  0  0  0
    1.7924   -4.6623    8.5732 F   0  0  0  0  0  0  0  0  0  0  0  0
   -0.4212    0.1912    5.5724 C   0  0  0  0  0  0  0  0  0  0  0  0
   -1.6933   -0.0804    6.0728 F   0  0  0  0  0  0  0  0  0  0  0  0
   -0.3643   -0.0106    4.2234 F   0  0  0  0  0  0  0  0  0  0  0  0
   -0.2073    1.5440    5.7961 F   0  0  0  0  0  0  0  0  0  0  0  0
    4.8220   -1.1596    8.5143 O   0  0  0  0  0  0  0  0  0  0  0  0
    4.6578   -0.8154    9.8642 C   0  0  0  0  0  0  0  0  0  0  0  0
    3.2139   -0.7241   10.2129 C   0  0  0  0  0  0  0  0  0  0  0  0
    2.8067   -1.9111   10.9112 N   0  0  0  0  0  0  0  0  0  0  0  0
    3.5279   -2.0980   12.1565 C   0  0  0  0  0  0  0  0  0  0  0  0
    4.9757   -1.8321   11.9120 C   0  0  0  0  0  0  0  0  0  0  0  0
    5.3111   -1.8437   10.5644 O   0  0  0  0  0  0  0  0  0  0  0  0
    1.3993   -2.0997   11.0587 C   0  0  0  0  0  0  0  0  0  0  0  0
    1.1067   -2.0923   12.5408 C   0  0  0  0  0  0  0  0  0  0  0  0
    1.2374   -3.1523   13.3527 N   0  0  0  0  0  0  0  0  0  0  0  0
    0.8923   -2.8022   14.5945 C   0  0  0  0  0  0  0  0  0  0  0  0
    0.9026   -3.5534   15.5817 O   0  0  0  0  0  0  0  0  0  0  0  0
    0.5429   -1.5017   14.5439 N   0  0  0  0  0  0  0  0  0  0  0  0
    0.6727   -1.0701   13.2980 N   0  0  0  0  0  0  0  0  0  0  0  0
    2.7665    0.5443   10.8009 C   0  0  0  0  0  0  0  0  0  0  0  0
    1.5299    1.0905   10.5846 C   0  0  0  0  0  0  0  0  0  0  0  0
    1.1099    2.2824   11.1724 C   0  0  0  0  0  0  0  0  0  0  0  0
    1.9465    2.9634   12.0088 C   0  0  0  0  0  0  0  0  0  0  0  0
    3.1942    2.4507   12.2523 C   0  0  0  0  0  0  0  0  0  0  0  0
    3.5940    1.2721   11.6644 C   0  0  0  0  0  0  0  0  0  0  0  0
    1.5666    4.1280   12.5970 F   0  0  0  0  0  0  0  0  0  0  0  0
  1  2  1  0
  2  3  1  0
  3  4  2  0
  4  5  1  0
  5  6  2  0
  6  7  1  0
  7  8  2  0
  7  9  1  0
  9 10  1  0
  9 11  1  0
  9 12  1  0
  5 13  1  0
 13 14  1  0
 13 15  1  0
 13 16  1  0
  2 17  1  0
 17 18  1  0
 18 19  1  0
 19 20  1  0
 20 21  1  0
 21 22  1  0
 22 23  1  0
 20 24  1  0
 24 25  1  0
 25 26  2  0
 26 27  1  0
 27 28  2  0
 27 29  1  0
 29 30  1  0
 19 31  1  0
 31 32  2  0
 32 33  1  0
 33 34  2  0
 34 35  1  0
 35 36  2  0
 34 37  1  0
  8  3  1  0
 23 18  1  0
 30 25  1  0
 36 31  1  0
M  END
$$$$
