
     RDKit          3D

 37 40  0  0  0  0  0  0  0  0999 V2000
    4.4763   -1.7718    6.0194 C   0  0  0  0  0  0  0  0  0  0  0  0
    3.7742   -1.2506    7.2666 C   0  0  0  0  0  0  0  0  0  0  0  0
    2.3921   -0.8717    6.9026 C   0  0  0  0  0  0  0  0  0  0  0  0
    2.0793    0.3118    6.2723 C   0  0  0  0  0  0  0  0  0  0  0  0
    0.7643    0.6421    5.9457 C   0  0  0  0  0  0  0  0  0  0  0  0
   -0.2529   -0.2294    6.2566 C   0  0  0  0  0  0  0  0  0  0  0  0
    0.0172   -1.4419    6.8960 C   0  0  0  0  0  0  0  0  0  0  0  0
    1.3225   -1.7152    7.1929 C   0  0  0  0  0  0  0  0  0  0  0  0
   -1.0706   -2.3999    7.2414 C   0  0  0  0  0  0  0  0  0  0  0  0
   -1.6609   -2.8478    6.0850 F   0  0  0  0  0  0  0  0  0  0  0  0
   -2.0359   -1.6729    7.9484 F   0  0  0  0  0  0  0  0  0  0  0  0
   -0.6187   -3.4084    8.0503 F   0  0  0  0  0  0  0  0  0  0  0  0
    0.4671    1.9261    5.2672 C   0  0  0  0  0  0  0  0  0  0  0  0
   -0.8613    2.2523    5.5344 F   0  0  0  0  0  0  0  0  0  0  0  0
    0.7095    1.8899    3.9241 F   0  0  0  0  0  0  0  0  0  0  0  0
    1.2248    2.9621    5.7949 F   0  0  0  0  0  0  0  0  0  0  0  0
    3.9015   -2.1564    8.2764 O   0  0  0  0  0  0  0  0  0  0  0  0
    3.9863   -1.4846    9.5048 C   0  0  0  0  0  0  0  0  0  0  0  0
    2.6871   -1.5436   10.2285 C   0  0  0  0  0  0  0  0  0  0  0  0
    2.7501   -2.5417   11.2592 N   0  0  0  0  0  0  0  0  0  0  0  0
    3.7697   -2.2529   12.2506 C   0  0  0  0  0  0  0  0  0  0  0  0
    5.0128   -1.8263   11.5439 C   0  0  0  0  0  0  0  0  0  0  0  0
    5.0113   -2.1541   10.1944 O   0  0  0  0  0  0  0  0  0  0  0  0
    1.5038   -2.9152   11.8468 C   0  0  0  0  0  0  0  0  0  0  0  0
    1.7020   -2.9049   13.3444 C   0  0  0  0  0  0  0  0  0  0  0  0
    1.2036   -3.8199   14.1894 N   0  0  0  0  0  0  0  0  0  0  0  0
    1.5623   -3.5093   15.4379 C   0  0  0  0  0  0  0  0  0  0  0  0
    1.2621   -4.1555   16.4534 O   0  0  0  0  0  0  0  0  0  0  0  0
    2.2954   -2.3813   15.3576 N   0  0  0  0  0  0  0  0  0  0  0  0
    2.3806   -2.0138   14.0876 N   0  0  0  0  0  0  0  0  0  0  0  0
    2.1055   -0.2557   10.6256 C   0  0  0  0  0  0  0  0  0  0  0  0
    2.8079    0.9188   10.6622 C   0  0  0  0  0  0  0  0  0  0  0  0
    2.2342    2.1391   11.0152 C   0  0  0  0  0  0  0  0  0  0  0  0
    0.9114    2.2016   11.3460 C   0  0  0  0  0  0  0  0  0  0  0  0
    0.1717    1.0478   11.3220 C   0  0  0  0  0  0  0  0  0  0  0  0
    0.7529   -0.1494   10.9708 C   0  0  0  0  0  0  0  0  0  0  0  0
    0.3229    3.3758   11.6948 F   0  0  0  0  0  0  0  0  0  0  0  0
  1  2  1  0
  2  3  1  0
  3  4  2  0
  4  5  1  0
  5  6  2  0
  6  7  1  0
  7  8  2  0
  7  9  1  0
  9 10  1  0
  9 11  1  0
  9 12  1  0
  5 13  1  0
 13 14  1  0
 13 15  1  0
 13 16  1  0
  2 17  1  0
 17 18  1  0
 18 19  1  0
 19 20  1  0
 20 21  1  0
 21 22  1  0
 22 23  1  0
 20 24  1  0
 24 25  1  0
 25 26  2  0
 26 27  1  0
 27 28  2  0
 27 29  1  0
 29 30  1  0
 19 31  1  0
 31 32  2  0
 32 33  1  0
 33 34  2  0
 34 35  1  0
 35 36  2  0
 34 37  1  0
  8  3  1  0
 23 18  1  0
 30 25  1  0
 36 31  1  0
M  END
$$$$
