
     RDKit          3D

 37 40  0  0  0  0  0  0  0  0999 V2000
    4.7776   -0.9501    7.6962 C   0  0  0  0  0  0  0  0  0  0  0  0
    3.5706   -0.2635    8.3223 C   0  0  0  0  0  0  0  0  0  0  0  0
    2.3520   -0.7348    7.6300 C   0  0  0  0  0  0  0  0  0  0  0  0
    1.7324   -0.0193    6.6300 C   0  0  0  0  0  0  0  0  0  0  0  0
    0.5811   -0.4894    5.9990 C   0  0  0  0  0  0  0  0  0  0  0  0
    0.0432   -1.6970    6.3774 C   0  0  0  0  0  0  0  0  0  0  0  0
    0.6379   -2.4576    7.3872 C   0  0  0  0  0  0  0  0  0  0  0  0
    1.7637   -1.9500    7.9718 C   0  0  0  0  0  0  0  0  0  0  0  0
    0.0709   -3.7685    7.8119 C   0  0  0  0  0  0  0  0  0  0  0  0
   -0.4437   -4.4139    6.7142 F   0  0  0  0  0  0  0  0  0  0  0  0
   -0.9993   -3.4840    8.6687 F   0  0  0  0  0  0  0  0  0  0  0  0
    0.9861   -4.5148    8.5055 F   0  0  0  0  0  0  0  0  0  0  0  0
   -0.0577    0.3099    4.9263 C   0  0  0  0  0  0  0  0  0  0  0  0
   -1.4050   -0.0428    4.8763 F   0  0  0  0  0  0  0  0  0  0  0  0
    0.5432    0.1507    3.7108 F   0  0  0  0  0  0  0  0  0  0  0  0
   -0.0319    1.6650    5.2243 F   0  0  0  0  0  0  0  0  0  0  0  0
    3.5964   -0.4341    9.6738 O   0  0  0  0  0  0  0  0  0  0  0  0
    3.2388    0.7651   10.3075 C   0  0  0  0  0  0  0  0  0  0  0  0
    2.1593    0.5324   11.3052 C   0  0  0  0  0  0  0  0  0  0  0  0
    2.7184    0.5015   12.6276 N   0  0  0  0  0  0  0  0  0  0  0  0
    3.3607    1.7517   12.9886 C   0  0  0  0  0  0  0  0  0  0  0  0
    4.1891    2.2110   11.8355 C   0  0  0  0  0  0  0  0  0  0  0  0
    4.4306    1.2083   10.9055 O   0  0  0  0  0  0  0  0  0  0  0  0
    1.8633    0.0066   13.6582 C   0  0  0  0  0  0  0  0  0  0  0  0
    1.5209   -1.4203   13.2992 C   0  0  0  0  0  0  0  0  0  0  0  0
    2.1245   -2.5045   13.8092 N   0  0  0  0  0  0  0  0  0  0  0  0
    1.5843   -3.6028   13.2747 C   0  0  0  0  0  0  0  0  0  0  0  0
    1.9190   -4.7683   13.5363 O   0  0  0  0  0  0  0  0  0  0  0  0
    0.6303   -3.1845   12.4195 N   0  0  0  0  0  0  0  0  0  0  0  0
    0.5912   -1.8603   12.4338 N   0  0  0  0  0  0  0  0  0  0  0  0
    0.9439    1.3403   11.1478 C   0  0  0  0  0  0  0  0  0  0  0  0
    0.9333    2.6089   10.6330 C   0  0  0  0  0  0  0  0  0  0  0  0
   -0.2330    3.3531   10.4643 C   0  0  0  0  0  0  0  0  0  0  0  0
   -1.4394    2.8221   10.8192 C   0  0  0  0  0  0  0  0  0  0  0  0
   -1.4730    1.5541   11.3387 C   0  0  0  0  0  0  0  0  0  0  0  0
   -0.3124    0.8318   11.4987 C   0  0  0  0  0  0  0  0  0  0  0  0
   -2.5941    3.5223   10.6673 F   0  0  0  0  0  0  0  0  0  0  0  0
  1  2  1  0
  2  3  1  0
  3  4  2  0
  4  5  1  0
  5  6  2  0
  6  7  1  0
  7  8  2  0
  7  9  1  0
  9 10  1  0
  9 11  1  0
  9 12  1  0
  5 13  1  0
 13 14  1  0
 13 15  1  0
 13 16  1  0
  2 17  1  0
 17 18  1  0
 18 19  1  0
 19 20  1  0
 20 21  1  0
 21 22  1  0
 22 23  1  0
 20 24  1  0
 24 25  1  0
 25 26  2  0
 26 27  1  0
 27 28  2  0
 27 29  1  0
 29 30  1  0
 19 31  1  0
 31 32  2  0
 32 33  1  0
 33 34  2  0
 34 35  1  0
 35 36  2  0
 34 37  1  0
  8  3  1  0
 23 18  1  0
 30 25  1  0
 36 31  1  0
M  END
$$$$
