
     RDKit          3D

 37 40  0  0  0  0  0  0  0  0999 V2000
    4.7484   -2.2340    6.9248 C   0  0  0  0  0  0  0  0  0  0  0  0
    4.1245   -1.0489    7.6503 C   0  0  0  0  0  0  0  0  0  0  0  0
    2.9053   -0.6412    6.9199 C   0  0  0  0  0  0  0  0  0  0  0  0
    2.4489    0.6575    6.8865 C   0  0  0  0  0  0  0  0  0  0  0  0
    1.2923    1.0094    6.1914 C   0  0  0  0  0  0  0  0  0  0  0  0
    0.5824    0.0425    5.5190 C   0  0  0  0  0  0  0  0  0  0  0  0
    1.0077   -1.2882    5.5250 C   0  0  0  0  0  0  0  0  0  0  0  0
    2.1469   -1.5776    6.2216 C   0  0  0  0  0  0  0  0  0  0  0  0
    0.2529   -2.3507    4.8027 C   0  0  0  0  0  0  0  0  0  0  0  0
    0.2625   -2.0753    3.4573 F   0  0  0  0  0  0  0  0  0  0  0  0
   -1.0755   -2.2648    5.2370 F   0  0  0  0  0  0  0  0  0  0  0  0
    0.7216   -3.6009    5.1080 F   0  0  0  0  0  0  0  0  0  0  0  0
    0.8325    2.4186    6.1788 C   0  0  0  0  0  0  0  0  0  0  0  0
    1.1738    2.9677    4.9442 F   0  0  0  0  0  0  0  0  0  0  0  0
    1.3415    3.1564    7.2087 F   0  0  0  0  0  0  0  0  0  0  0  0
   -0.5506    2.4981    6.2593 F   0  0  0  0  0  0  0  0  0  0  0  0
    3.9606   -1.3532    8.9683 O   0  0  0  0  0  0  0  0  0  0  0  0
    3.2076   -0.3487    9.5941 C   0  0  0  0  0  0  0  0  0  0  0  0
    2.9062   -0.7173   11.0042 C   0  0  0  0  0  0  0  0  0  0  0  0
    3.7879   -0.0101   11.8902 N   0  0  0  0  0  0  0  0  0  0  0  0
    3.6370    1.4298   11.7916 C   0  0  0  0  0  0  0  0  0  0  0  0
    3.5676    1.8029   10.3485 C   0  0  0  0  0  0  0  0  0  0  0  0
    4.0171    0.7963    9.5040 O   0  0  0  0  0  0  0  0  0  0  0  0
    3.8167   -0.4674   13.2423 C   0  0  0  0  0  0  0  0  0  0  0  0
    2.7146   -1.4907   13.3849 C   0  0  0  0  0  0  0  0  0  0  0  0
    2.7978   -2.7675   12.9816 N   0  0  0  0  0  0  0  0  0  0  0  0
    1.6485   -3.3917   13.2525 C   0  0  0  0  0  0  0  0  0  0  0  0
    1.4016   -4.5817   13.0043 O   0  0  0  0  0  0  0  0  0  0  0  0
    0.8439   -2.4800   13.8335 N   0  0  0  0  0  0  0  0  0  0  0  0
    1.4900   -1.3262   13.9143 N   0  0  0  0  0  0  0  0  0  0  0  0
    1.4890   -0.7199   11.3864 C   0  0  0  0  0  0  0  0  0  0  0  0
    0.4746   -1.1007   10.5496 C   0  0  0  0  0  0  0  0  0  0  0  0
   -0.8642   -1.1239   10.9363 C   0  0  0  0  0  0  0  0  0  0  0  0
   -1.2158   -0.7552   12.2027 C   0  0  0  0  0  0  0  0  0  0  0  0
   -0.2302   -0.3669   13.0726 C   0  0  0  0  0  0  0  0  0  0  0  0
    1.0875   -0.3498   12.6755 C   0  0  0  0  0  0  0  0  0  0  0  0
   -2.5122   -0.7668   12.6100 F   0  0  0  0  0  0  0  0  0  0  0  0
  1  2  1  0
  2  3  1  0
  3  4  2  0
  4  5  1  0
  5  6  2  0
  6  7  1  0
  7  8  2  0
  7  9  1  0
  9 10  1  0
  9 11  1  0
  9 12  1  0
  5 13  1  0
 13 14  1  0
 13 15  1  0
 13 16  1  0
  2 17  1  0
 17 18  1  0
 18 19  1  0
 19 20  1  0
 20 21  1  0
 21 22  1  0
 22 23  1  0
 20 24  1  0
 24 25  1  0
 25 26  2  0
 26 27  1  0
 27 28  2  0
 27 29  1  0
 29 30  1  0
 19 31  1  0
 31 32  2  0
 32 33  1  0
 33 34  2  0
 34 35  1  0
 35 36  2  0
 34 37  1  0
  8  3  1  0
 23 18  1  0
 30 25  1  0
 36 31  1  0
M  END
$$$$
