
     RDKit          3D

 37 40  0  0  0  0  0  0  0  0999 V2000
    4.9332    0.1173    7.1910 C   0  0  0  0  0  0  0  0  0  0  0  0
    3.6605   -0.1552    7.9822 C   0  0  0  0  0  0  0  0  0  0  0  0
    2.5619   -0.4159    7.0275 C   0  0  0  0  0  0  0  0  0  0  0  0
    2.0024   -1.6611    6.8485 C   0  0  0  0  0  0  0  0  0  0  0  0
    0.9694   -1.8754    5.9365 C   0  0  0  0  0  0  0  0  0  0  0  0
    0.4901   -0.8230    5.1924 C   0  0  0  0  0  0  0  0  0  0  0  0
    1.0272    0.4582    5.3405 C   0  0  0  0  0  0  0  0  0  0  0  0
    2.0373    0.6119    6.2477 C   0  0  0  0  0  0  0  0  0  0  0  0
    0.5221    1.6117    4.5439 C   0  0  0  0  0  0  0  0  0  0  0  0
   -0.6571    2.0552    5.0906 F   0  0  0  0  0  0  0  0  0  0  0  0
    0.2307    1.1197    3.2658 F   0  0  0  0  0  0  0  0  0  0  0  0
    1.4692    2.5930    4.4177 F   0  0  0  0  0  0  0  0  0  0  0  0
    0.3926   -3.2310    5.7718 C   0  0  0  0  0  0  0  0  0  0  0  0
   -0.8098   -3.2713    6.4753 F   0  0  0  0  0  0  0  0  0  0  0  0
    1.2379   -4.2244    6.1750 F   0  0  0  0  0  0  0  0  0  0  0  0
    0.0647   -3.4815    4.4468 F   0  0  0  0  0  0  0  0  0  0  0  0
    3.8952   -1.1282    8.9067 O   0  0  0  0  0  0  0  0  0  0  0  0
    3.8498   -0.5755   10.1951 C   0  0  0  0  0  0  0  0  0  0  0  0
    2.5351   -0.8453   10.8382 C   0  0  0  0  0  0  0  0  0  0  0  0
    2.6648   -1.9275   11.7735 N   0  0  0  0  0  0  0  0  0  0  0  0
    3.6009   -1.6295   12.8415 C   0  0  0  0  0  0  0  0  0  0  0  0
    4.8178   -1.0037   12.2464 C   0  0  0  0  0  0  0  0  0  0  0  0
    4.9124   -1.1952   10.8742 O   0  0  0  0  0  0  0  0  0  0  0  0
    1.4439   -2.4894   12.2550 C   0  0  0  0  0  0  0  0  0  0  0  0
    1.7091   -2.9830   13.6578 C   0  0  0  0  0  0  0  0  0  0  0  0
    1.9558   -4.2601   13.9867 N   0  0  0  0  0  0  0  0  0  0  0  0
    2.1398   -4.3482   15.3067 C   0  0  0  0  0  0  0  0  0  0  0  0
    2.3871   -5.3922   15.9293 O   0  0  0  0  0  0  0  0  0  0  0  0
    2.0035   -3.1006   15.7977 N   0  0  0  0  0  0  0  0  0  0  0  0
    1.7420   -2.2716   14.7978 N   0  0  0  0  0  0  0  0  0  0  0  0
    1.7952    0.3268   11.3212 C   0  0  0  0  0  0  0  0  0  0  0  0
    0.4333    0.3667   11.4546 C   0  0  0  0  0  0  0  0  0  0  0  0
   -0.2526    1.4784   11.9409 C   0  0  0  0  0  0  0  0  0  0  0  0
    0.4358    2.5976   12.3107 C   0  0  0  0  0  0  0  0  0  0  0  0
    1.8014    2.5993   12.1930 C   0  0  0  0  0  0  0  0  0  0  0  0
    2.4641    1.4932   11.7113 C   0  0  0  0  0  0  0  0  0  0  0  0
   -0.2038    3.6974   12.7881 F   0  0  0  0  0  0  0  0  0  0  0  0
  1  2  1  0
  2  3  1  0
  3  4  2  0
  4  5  1  0
  5  6  2  0
  6  7  1  0
  7  8  2  0
  7  9  1  0
  9 10  1  0
  9 11  1  0
  9 12  1  0
  5 13  1  0
 13 14  1  0
 13 15  1  0
 13 16  1  0
  2 17  1  0
 17 18  1  0
 18 19  1  0
 19 20  1  0
 20 21  1  0
 21 22  1  0
 22 23  1  0
 20 24  1  0
 24 25  1  0
 25 26  2  0
 26 27  1  0
 27 28  2  0
 27 29  1  0
 29 30  1  0
 19 31  1  0
 31 32  2  0
 32 33  1  0
 33 34  2  0
 34 35  1  0
 35 36  2  0
 34 37  1  0
  8  3  1  0
 23 18  1  0
 30 25  1  0
 36 31  1  0
M  END
$$$$
