
     RDKit          3D

 37 40  0  0  0  0  0  0  0  0999 V2000
    1.7818   -2.8396    5.6270 C   0  0  0  0  0  0  0  0  0  0  0  0
    2.2781   -1.8381    6.6618 C   0  0  0  0  0  0  0  0  0  0  0  0
    1.2315   -0.8127    6.8612 C   0  0  0  0  0  0  0  0  0  0  0  0
    0.5892   -0.6193    8.0636 C   0  0  0  0  0  0  0  0  0  0  0  0
   -0.3972    0.3542    8.2184 C   0  0  0  0  0  0  0  0  0  0  0  0
   -0.7444    1.1464    7.1494 C   0  0  0  0  0  0  0  0  0  0  0  0
   -0.1193    0.9862    5.9103 C   0  0  0  0  0  0  0  0  0  0  0  0
    0.8397    0.0178    5.8141 C   0  0  0  0  0  0  0  0  0  0  0  0
   -0.4809    1.8343    4.7397 C   0  0  0  0  0  0  0  0  0  0  0  0
   -1.4058    2.7714    5.1304 F   0  0  0  0  0  0  0  0  0  0  0  0
   -1.1060    0.9923    3.8120 F   0  0  0  0  0  0  0  0  0  0  0  0
    0.6279    2.3756    4.1452 F   0  0  0  0  0  0  0  0  0  0  0  0
   -1.0665    0.5323    9.5290 C   0  0  0  0  0  0  0  0  0  0  0  0
   -2.1461   -0.3476    9.5798 F   0  0  0  0  0  0  0  0  0  0  0  0
   -1.4628    1.8188    9.7567 F   0  0  0  0  0  0  0  0  0  0  0  0
   -0.2311    0.1673   10.5752 F   0  0  0  0  0  0  0  0  0  0  0  0
    2.6898   -2.5000    7.7793 O   0  0  0  0  0  0  0  0  0  0  0  0
    3.6733   -1.7472    8.4379 C   0  0  0  0  0  0  0  0  0  0  0  0
    3.4805   -1.8034    9.9126 C   0  0  0  0  0  0  0  0  0  0  0  0
    4.4140   -2.7297   10.4896 N   0  0  0  0  0  0  0  0  0  0  0  0
    5.7938   -2.3425   10.2615 C   0  0  0  0  0  0  0  0  0  0  0  0
    5.9401   -1.9206    8.8377 C   0  0  0  0  0  0  0  0  0  0  0  0
    4.8846   -2.3352    8.0361 O   0  0  0  0  0  0  0  0  0  0  0  0
    4.1668   -3.1065   11.8443 C   0  0  0  0  0  0  0  0  0  0  0  0
    2.7551   -2.6786   12.1700 C   0  0  0  0  0  0  0  0  0  0  0  0
    2.4096   -1.4692   12.6368 N   0  0  0  0  0  0  0  0  0  0  0  0
    1.0874   -1.4287   12.8216 C   0  0  0  0  0  0  0  0  0  0  0  0
    0.4509   -0.4517   13.2447 O   0  0  0  0  0  0  0  0  0  0  0  0
    0.6120   -2.6371   12.4612 N   0  0  0  0  0  0  0  0  0  0  0  0
    1.6233   -3.3962   12.0657 N   0  0  0  0  0  0  0  0  0  0  0  0
    3.3573   -0.5130   10.6013 C   0  0  0  0  0  0  0  0  0  0  0  0
    3.5687   -0.3421   11.9431 C   0  0  0  0  0  0  0  0  0  0  0  0
    3.4747    0.8953   12.5778 C   0  0  0  0  0  0  0  0  0  0  0  0
    3.1583    2.0104   11.8569 C   0  0  0  0  0  0  0  0  0  0  0  0
    2.9388    1.8828   10.5099 C   0  0  0  0  0  0  0  0  0  0  0  0
    3.0358    0.6539    9.8978 C   0  0  0  0  0  0  0  0  0  0  0  0
    3.0588    3.2307   12.4464 F   0  0  0  0  0  0  0  0  0  0  0  0
  1  2  1  0
  2  3  1  0
  3  4  2  0
  4  5  1  0
  5  6  2  0
  6  7  1  0
  7  8  2  0
  7  9  1  0
  9 10  1  0
  9 11  1  0
  9 12  1  0
  5 13  1  0
 13 14  1  0
 13 15  1  0
 13 16  1  0
  2 17  1  0
 17 18  1  0
 18 19  1  0
 19 20  1  0
 20 21  1  0
 21 22  1  0
 22 23  1  0
 20 24  1  0
 24 25  1  0
 25 26  2  0
 26 27  1  0
 27 28  2  0
 27 29  1  0
 29 30  1  0
 19 31  1  0
 31 32  2  0
 32 33  1  0
 33 34  2  0
 34 35  1  0
 35 36  2  0
 34 37  1  0
  8  3  1  0
 23 18  1  0
 30 25  1  0
 36 31  1  0
M  END
$$$$
