
     RDKit          3D

 37 40  0  0  0  0  0  0  0  0999 V2000
    4.6852   -1.0248    7.2398 C   0  0  0  0  0  0  0  0  0  0  0  0
    3.4272   -1.3656    8.0282 C   0  0  0  0  0  0  0  0  0  0  0  0
    2.2630   -0.7815    7.3284 C   0  0  0  0  0  0  0  0  0  0  0  0
    1.5758   -1.4414    6.3344 C   0  0  0  0  0  0  0  0  0  0  0  0
    0.4834   -0.8612    5.6903 C   0  0  0  0  0  0  0  0  0  0  0  0
    0.0741    0.4014    6.0498 C   0  0  0  0  0  0  0  0  0  0  0  0
    0.7410    1.1087    7.0532 C   0  0  0  0  0  0  0  0  0  0  0  0
    1.8044    0.4934    7.6510 C   0  0  0  0  0  0  0  0  0  0  0  0
    0.3132    2.4776    7.4574 C   0  0  0  0  0  0  0  0  0  0  0  0
    1.3658    3.3449    7.2958 F   0  0  0  0  0  0  0  0  0  0  0  0
    0.0260    2.4203    8.8266 F   0  0  0  0  0  0  0  0  0  0  0  0
   -0.8226    2.8680    6.7991 F   0  0  0  0  0  0  0  0  0  0  0  0
   -0.2311   -1.6033    4.6244 C   0  0  0  0  0  0  0  0  0  0  0  0
    0.6143   -1.6819    3.5192 F   0  0  0  0  0  0  0  0  0  0  0  0
   -1.4306   -1.0414    4.2936 F   0  0  0  0  0  0  0  0  0  0  0  0
   -0.4810   -2.9145    5.0040 F   0  0  0  0  0  0  0  0  0  0  0  0
    3.3787   -2.7081    8.2557 O   0  0  0  0  0  0  0  0  0  0  0  0
    2.4130   -2.9861    9.2343 C   0  0  0  0  0  0  0  0  0  0  0  0
    2.6515   -2.1710   10.4565 C   0  0  0  0  0  0  0  0  0  0  0  0
    1.7399   -1.0617   10.4861 N   0  0  0  0  0  0  0  0  0  0  0  0
    0.3522   -1.4840   10.5277 C   0  0  0  0  0  0  0  0  0  0  0  0
    0.1603   -2.5851    9.5391 C   0  0  0  0  0  0  0  0  0  0  0  0
    1.1922   -2.6714    8.6138 O   0  0  0  0  0  0  0  0  0  0  0  0
    2.0303   -0.0371   11.4370 C   0  0  0  0  0  0  0  0  0  0  0  0
    1.0354   -0.1869   12.5638 C   0  0  0  0  0  0  0  0  0  0  0  0
    0.0914    0.7134   12.8771 N   0  0  0  0  0  0  0  0  0  0  0  0
   -0.6099    0.2714   13.9242 C   0  0  0  0  0  0  0  0  0  0  0  0
   -1.5552    0.8700   14.4600 O   0  0  0  0  0  0  0  0  0  0  0  0
   -0.0861   -0.9239   14.2605 N   0  0  0  0  0  0  0  0  0  0  0  0
    0.9123   -1.2028   13.4354 N   0  0  0  0  0  0  0  0  0  0  0  0
    2.7907   -2.9130   11.7153 C   0  0  0  0  0  0  0  0  0  0  0  0
    3.9396   -2.9432   12.4592 C   0  0  0  0  0  0  0  0  0  0  0  0
    4.0476   -3.6303   13.6670 C   0  0  0  0  0  0  0  0  0  0  0  0
    2.9759   -4.3166   14.1606 C   0  0  0  0  0  0  0  0  0  0  0  0
    1.8059   -4.3119   13.4465 C   0  0  0  0  0  0  0  0  0  0  0  0
    1.7151   -3.6281   12.2554 C   0  0  0  0  0  0  0  0  0  0  0  0
    3.0495   -4.9964   15.3349 F   0  0  0  0  0  0  0  0  0  0  0  0
  1  2  1  0
  2  3  1  0
  3  4  2  0
  4  5  1  0
  5  6  2  0
  6  7  1  0
  7  8  2  0
  7  9  1  0
  9 10  1  0
  9 11  1  0
  9 12  1  0
  5 13  1  0
 13 14  1  0
 13 15  1  0
 13 16  1  0
  2 17  1  0
 17 18  1  0
 18 19  1  0
 19 20  1  0
 20 21  1  0
 21 22  1  0
 22 23  1  0
 20 24  1  0
 24 25  1  0
 25 26  2  0
 26 27  1  0
 27 28  2  0
 27 29  1  0
 29 30  1  0
 19 31  1  0
 31 32  2  0
 32 33  1  0
 33 34  2  0
 34 35  1  0
 35 36  2  0
 34 37  1  0
  8  3  1  0
 23 18  1  0
 30 25  1  0
 36 31  1  0
M  END
$$$$
