
     RDKit          3D

 37 40  0  0  0  0  0  0  0  0999 V2000
    1.9347   -4.0517    7.4610 C   0  0  0  0  0  0  0  0  0  0  0  0
    2.4123   -2.6443    7.7949 C   0  0  0  0  0  0  0  0  0  0  0  0
    1.4743   -1.6751    7.1890 C   0  0  0  0  0  0  0  0  0  0  0  0
    0.7431   -0.7740    7.9301 C   0  0  0  0  0  0  0  0  0  0  0  0
   -0.1370    0.1252    7.3287 C   0  0  0  0  0  0  0  0  0  0  0  0
   -0.2855    0.1201    5.9616 C   0  0  0  0  0  0  0  0  0  0  0  0
    0.4360   -0.7763    5.1693 C   0  0  0  0  0  0  0  0  0  0  0  0
    1.2839   -1.6351    5.8099 C   0  0  0  0  0  0  0  0  0  0  0  0
    0.2896   -0.7978    3.6865 C   0  0  0  0  0  0  0  0  0  0  0  0
   -0.0851   -2.0578    3.2888 F   0  0  0  0  0  0  0  0  0  0  0  0
    1.5613   -0.5529    3.1543 F   0  0  0  0  0  0  0  0  0  0  0  0
   -0.5539    0.1875    3.2470 F   0  0  0  0  0  0  0  0  0  0  0  0
   -0.9072    1.0803    8.1605 C   0  0  0  0  0  0  0  0  0  0  0  0
   -0.3609    1.0665    9.4425 F   0  0  0  0  0  0  0  0  0  0  0  0
   -2.2448    0.8084    8.1872 F   0  0  0  0  0  0  0  0  0  0  0  0
   -0.7604    2.3814    7.7004 F   0  0  0  0  0  0  0  0  0  0  0  0
    2.6049   -2.5327    9.1390 O   0  0  0  0  0  0  0  0  0  0  0  0
    3.1664   -1.2812    9.4327 C   0  0  0  0  0  0  0  0  0  0  0  0
    3.0289   -0.9688   10.8813 C   0  0  0  0  0  0  0  0  0  0  0  0
    4.2776   -1.2058   11.5500 N   0  0  0  0  0  0  0  0  0  0  0  0
    5.3483   -0.3694   11.0402 C   0  0  0  0  0  0  0  0  0  0  0  0
    5.2847   -0.3715    9.5494 C   0  0  0  0  0  0  0  0  0  0  0  0
    4.5097   -1.4048    9.0393 O   0  0  0  0  0  0  0  0  0  0  0  0
    4.2302   -1.2273   12.9767 C   0  0  0  0  0  0  0  0  0  0  0  0
    3.1690   -2.2291   13.3672 C   0  0  0  0  0  0  0  0  0  0  0  0
    1.9547   -1.9129   13.8418 N   0  0  0  0  0  0  0  0  0  0  0  0
    1.2722   -3.0339   14.0898 C   0  0  0  0  0  0  0  0  0  0  0  0
    0.1162   -3.0871   14.5365 O   0  0  0  0  0  0  0  0  0  0  0  0
    2.0836   -4.0584   13.7609 N   0  0  0  0  0  0  0  0  0  0  0  0
    3.2349   -3.5709   13.3223 N   0  0  0  0  0  0  0  0  0  0  0  0
    2.3604    0.2953   11.2127 C   0  0  0  0  0  0  0  0  0  0  0  0
    3.0146    1.4898   11.3519 C   0  0  0  0  0  0  0  0  0  0  0  0
    2.3618    2.6872   11.6399 C   0  0  0  0  0  0  0  0  0  0  0  0
    1.0060    2.7052   11.7972 C   0  0  0  0  0  0  0  0  0  0  0  0
    0.3126    1.5301   11.6658 C   0  0  0  0  0  0  0  0  0  0  0  0
    0.9719    0.3560   11.3808 C   0  0  0  0  0  0  0  0  0  0  0  0
    0.3405    3.8561   12.0786 F   0  0  0  0  0  0  0  0  0  0  0  0
  1  2  1  0
  2  3  1  0
  3  4  2  0
  4  5  1  0
  5  6  2  0
  6  7  1  0
  7  8  2  0
  7  9  1  0
  9 10  1  0
  9 11  1  0
  9 12  1  0
  5 13  1  0
 13 14  1  0
 13 15  1  0
 13 16  1  0
  2 17  1  0
 17 18  1  0
 18 19  1  0
 19 20  1  0
 20 21  1  0
 21 22  1  0
 22 23  1  0
 20 24  1  0
 24 25  1  0
 25 26  2  0
 26 27  1  0
 27 28  2  0
 27 29  1  0
 29 30  1  0
 19 31  1  0
 31 32  2  0
 32 33  1  0
 33 34  2  0
 34 35  1  0
 35 36  2  0
 34 37  1  0
  8  3  1  0
 23 18  1  0
 30 25  1  0
 36 31  1  0
M  END
$$$$
