
     RDKit          3D

 37 40  0  0  0  0  0  0  0  0999 V2000
    5.5807   -1.3321    6.7996 C   0  0  0  0  0  0  0  0  0  0  0  0
    4.5934   -0.8495    7.8542 C   0  0  0  0  0  0  0  0  0  0  0  0
    3.2223   -1.1221    7.3723 C   0  0  0  0  0  0  0  0  0  0  0  0
    2.4354   -0.1677    6.7676 C   0  0  0  0  0  0  0  0  0  0  0  0
    1.1438   -0.4554    6.3274 C   0  0  0  0  0  0  0  0  0  0  0  0
    0.6339   -1.7212    6.4967 C   0  0  0  0  0  0  0  0  0  0  0  0
    1.3961   -2.7216    7.1049 C   0  0  0  0  0  0  0  0  0  0  0  0
    2.6546   -2.3855    7.5173 C   0  0  0  0  0  0  0  0  0  0  0  0
    0.8622   -4.0994    7.2977 C   0  0  0  0  0  0  0  0  0  0  0  0
    1.6749   -4.9933    6.6446 F   0  0  0  0  0  0  0  0  0  0  0  0
   -0.3887   -4.1363    6.6697 F   0  0  0  0  0  0  0  0  0  0  0  0
    0.6828   -4.3916    8.6236 F   0  0  0  0  0  0  0  0  0  0  0  0
    0.3268    0.5991    5.6808 C   0  0  0  0  0  0  0  0  0  0  0  0
    0.1815    1.6444    6.5910 F   0  0  0  0  0  0  0  0  0  0  0  0
   -0.8857    0.1455    5.2472 F   0  0  0  0  0  0  0  0  0  0  0  0
    0.9805    1.1409    4.5831 F   0  0  0  0  0  0  0  0  0  0  0  0
    4.9203   -1.3813    9.0653 O   0  0  0  0  0  0  0  0  0  0  0  0
    4.2660   -0.6726   10.0838 C   0  0  0  0  0  0  0  0  0  0  0  0
    2.9963   -1.3490   10.4647 C   0  0  0  0  0  0  0  0  0  0  0  0
    3.1837   -2.0822   11.6853 N   0  0  0  0  0  0  0  0  0  0  0  0
    3.5524   -1.2254   12.7970 C   0  0  0  0  0  0  0  0  0  0  0  0
    4.5959   -0.2655   12.3319 C   0  0  0  0  0  0  0  0  0  0  0  0
    5.1942   -0.6484   11.1385 O   0  0  0  0  0  0  0  0  0  0  0  0
    2.1513   -3.0079   12.0251 C   0  0  0  0  0  0  0  0  0  0  0  0
    1.4479   -2.4561   13.2428 C   0  0  0  0  0  0  0  0  0  0  0  0
    0.7710   -3.1933   14.1362 N   0  0  0  0  0  0  0  0  0  0  0  0
    0.2711   -2.3924   15.0810 C   0  0  0  0  0  0  0  0  0  0  0  0
   -0.4059   -2.7628   16.0522 O   0  0  0  0  0  0  0  0  0  0  0  0
    0.6487   -1.1389   14.7612 N   0  0  0  0  0  0  0  0  0  0  0  0
    1.3629   -1.1766   13.6459 N   0  0  0  0  0  0  0  0  0  0  0  0
    1.7786   -0.5324   10.3944 C   0  0  0  0  0  0  0  0  0  0  0  0
    0.5378   -1.0370   10.1115 C   0  0  0  0  0  0  0  0  0  0  0  0
   -0.6138   -0.2526   10.0754 C   0  0  0  0  0  0  0  0  0  0  0  0
   -0.5363    1.0864   10.3291 C   0  0  0  0  0  0  0  0  0  0  0  0
    0.6878    1.6320   10.6167 C   0  0  0  0  0  0  0  0  0  0  0  0
    1.8157    0.8438   10.6489 C   0  0  0  0  0  0  0  0  0  0  0  0
   -1.6406    1.8779   10.3013 F   0  0  0  0  0  0  0  0  0  0  0  0
  1  2  1  0
  2  3  1  0
  3  4  2  0
  4  5  1  0
  5  6  2  0
  6  7  1  0
  7  8  2  0
  7  9  1  0
  9 10  1  0
  9 11  1  0
  9 12  1  0
  5 13  1  0
 13 14  1  0
 13 15  1  0
 13 16  1  0
  2 17  1  0
 17 18  1  0
 18 19  1  0
 19 20  1  0
 20 21  1  0
 21 22  1  0
 22 23  1  0
 20 24  1  0
 24 25  1  0
 25 26  2  0
 26 27  1  0
 27 28  2  0
 27 29  1  0
 29 30  1  0
 19 31  1  0
 31 32  2  0
 32 33  1  0
 33 34  2  0
 34 35  1  0
 35 36  2  0
 34 37  1  0
  8  3  1  0
 23 18  1  0
 30 25  1  0
 36 31  1  0
M  END
$$$$
