
     RDKit          3D

 37 40  0  0  0  0  0  0  0  0999 V2000
    1.0604   -2.8580    7.3312 C   0  0  0  0  0  0  0  0  0  0  0  0
    1.6196   -1.5704    7.9223 C   0  0  0  0  0  0  0  0  0  0  0  0
    0.6906   -0.4655    7.6021 C   0  0  0  0  0  0  0  0  0  0  0  0
    0.0743    0.3006    8.5660 C   0  0  0  0  0  0  0  0  0  0  0  0
   -0.8006    1.3337    8.2313 C   0  0  0  0  0  0  0  0  0  0  0  0
   -1.0610    1.6024    6.9081 C   0  0  0  0  0  0  0  0  0  0  0  0
   -0.4584    0.8513    5.8959 C   0  0  0  0  0  0  0  0  0  0  0  0
    0.3899   -0.1486    6.2796 C   0  0  0  0  0  0  0  0  0  0  0  0
   -0.7273    1.1264    4.4563 C   0  0  0  0  0  0  0  0  0  0  0  0
   -0.6191   -0.0439    3.7458 F   0  0  0  0  0  0  0  0  0  0  0  0
    0.2913    1.9791    4.0138 F   0  0  0  0  0  0  0  0  0  0  0  0
   -1.9257    1.7650    4.2784 F   0  0  0  0  0  0  0  0  0  0  0  0
   -1.4451    2.1366    9.2978 C   0  0  0  0  0  0  0  0  0  0  0  0
   -2.2065    1.2717   10.0818 F   0  0  0  0  0  0  0  0  0  0  0  0
   -2.2026    3.1627    8.8108 F   0  0  0  0  0  0  0  0  0  0  0  0
   -0.5016    2.6901   10.1518 F   0  0  0  0  0  0  0  0  0  0  0  0
    1.8984   -1.7558    9.2430 O   0  0  0  0  0  0  0  0  0  0  0  0
    2.9291   -0.8883    9.6338 C   0  0  0  0  0  0  0  0  0  0  0  0
    2.8396   -0.5849   11.0880 C   0  0  0  0  0  0  0  0  0  0  0  0
    3.8067   -1.3655   11.8076 N   0  0  0  0  0  0  0  0  0  0  0  0
    5.1690   -1.0741   11.4015 C   0  0  0  0  0  0  0  0  0  0  0  0
    5.2175   -1.0094    9.9115 C   0  0  0  0  0  0  0  0  0  0  0  0
    4.1065   -1.5814    9.3056 O   0  0  0  0  0  0  0  0  0  0  0  0
    3.6530   -1.4008   13.2265 C   0  0  0  0  0  0  0  0  0  0  0  0
    2.8314   -2.6265   13.5503 C   0  0  0  0  0  0  0  0  0  0  0  0
    3.3115   -3.7418   14.1209 N   0  0  0  0  0  0  0  0  0  0  0  0
    2.3217   -4.6277   14.2597 C   0  0  0  0  0  0  0  0  0  0  0  0
    2.4352   -5.7601   14.7533 O   0  0  0  0  0  0  0  0  0  0  0  0
    1.2121   -4.0448   13.7645 N   0  0  0  0  0  0  0  0  0  0  0  0
    1.5205   -2.8304   13.3338 N   0  0  0  0  0  0  0  0  0  0  0  0
    2.7711    0.8354   11.4523 C   0  0  0  0  0  0  0  0  0  0  0  0
    3.4443    1.8258   10.7888 C   0  0  0  0  0  0  0  0  0  0  0  0
    3.3473    3.1737   11.1299 C   0  0  0  0  0  0  0  0  0  0  0  0
    2.5522    3.5594   12.1703 C   0  0  0  0  0  0  0  0  0  0  0  0
    1.8606    2.5988   12.8614 C   0  0  0  0  0  0  0  0  0  0  0  0
    1.9667    1.2717   12.5118 C   0  0  0  0  0  0  0  0  0  0  0  0
    2.4368    4.8654   12.5276 F   0  0  0  0  0  0  0  0  0  0  0  0
  1  2  1  0
  2  3  1  0
  3  4  2  0
  4  5  1  0
  5  6  2  0
  6  7  1  0
  7  8  2  0
  7  9  1  0
  9 10  1  0
  9 11  1  0
  9 12  1  0
  5 13  1  0
 13 14  1  0
 13 15  1  0
 13 16  1  0
  2 17  1  0
 17 18  1  0
 18 19  1  0
 19 20  1  0
 20 21  1  0
 21 22  1  0
 22 23  1  0
 20 24  1  0
 24 25  1  0
 25 26  2  0
 26 27  1  0
 27 28  2  0
 27 29  1  0
 29 30  1  0
 19 31  1  0
 31 32  2  0
 32 33  1  0
 33 34  2  0
 34 35  1  0
 35 36  2  0
 34 37  1  0
  8  3  1  0
 23 18  1  0
 30 25  1  0
 36 31  1  0
M  END
$$$$
