
     RDKit          3D

 37 40  0  0  0  0  0  0  0  0999 V2000
    0.7591   -3.6428    8.5025 C   0  0  0  0  0  0  0  0  0  0  0  0
    1.4173   -2.2703    8.5589 C   0  0  0  0  0  0  0  0  0  0  0  0
    0.8853   -1.4495    7.4499 C   0  0  0  0  0  0  0  0  0  0  0  0
    0.8379   -1.8894    6.1460 C   0  0  0  0  0  0  0  0  0  0  0  0
    0.3337   -1.0891    5.1213 C   0  0  0  0  0  0  0  0  0  0  0  0
   -0.1305    0.1728    5.4098 C   0  0  0  0  0  0  0  0  0  0  0  0
   -0.1022    0.6611    6.7185 C   0  0  0  0  0  0  0  0  0  0  0  0
    0.4020   -0.1644    7.6834 C   0  0  0  0  0  0  0  0  0  0  0  0
   -0.6003    2.0253    7.0520 C   0  0  0  0  0  0  0  0  0  0  0  0
   -1.6332    1.9207    7.9511 F   0  0  0  0  0  0  0  0  0  0  0  0
   -1.1280    2.5597    5.8703 F   0  0  0  0  0  0  0  0  0  0  0  0
    0.4123    2.8442    7.4758 F   0  0  0  0  0  0  0  0  0  0  0  0
    0.2993   -1.5978    3.7294 C   0  0  0  0  0  0  0  0  0  0  0  0
    0.9684   -0.6792    2.9227 F   0  0  0  0  0  0  0  0  0  0  0  0
   -0.9676   -1.8278    3.2753 F   0  0  0  0  0  0  0  0  0  0  0  0
    1.0020   -2.7885    3.6106 F   0  0  0  0  0  0  0  0  0  0  0  0
    1.2817   -1.7481    9.8100 O   0  0  0  0  0  0  0  0  0  0  0  0
    2.1702   -0.6749    9.9721 C   0  0  0  0  0  0  0  0  0  0  0  0
    2.2686   -0.2839   11.4047 C   0  0  0  0  0  0  0  0  0  0  0  0
    3.4789   -0.8113   11.9701 N   0  0  0  0  0  0  0  0  0  0  0  0
    4.6677   -0.3003   11.3132 C   0  0  0  0  0  0  0  0  0  0  0  0
    4.4503   -0.3412    9.8375 C   0  0  0  0  0  0  0  0  0  0  0  0
    3.3893   -1.1567    9.4662 O   0  0  0  0  0  0  0  0  0  0  0  0
    3.5768   -0.7669   13.3937 C   0  0  0  0  0  0  0  0  0  0  0  0
    2.8358   -1.9717   13.9241 C   0  0  0  0  0  0  0  0  0  0  0  0
    3.3989   -2.9743   14.6152 N   0  0  0  0  0  0  0  0  0  0  0  0
    2.4639   -3.8763   14.9253 C   0  0  0  0  0  0  0  0  0  0  0  0
    2.6587   -4.9230   15.5618 O   0  0  0  0  0  0  0  0  0  0  0  0
    1.3040   -3.4183   14.4144 N   0  0  0  0  0  0  0  0  0  0  0  0
    1.5287   -2.2626   13.8067 N   0  0  0  0  0  0  0  0  0  0  0  0
    1.9815    1.1216   11.7158 C   0  0  0  0  0  0  0  0  0  0  0  0
    0.7898    1.5611   12.2265 C   0  0  0  0  0  0  0  0  0  0  0  0
    0.5420    2.8958   12.5425 C   0  0  0  0  0  0  0  0  0  0  0  0
    1.5121    3.8357   12.3457 C   0  0  0  0  0  0  0  0  0  0  0  0
    2.7206    3.4374   11.8359 C   0  0  0  0  0  0  0  0  0  0  0  0
    2.9498    2.1154   11.5292 C   0  0  0  0  0  0  0  0  0  0  0  0
    1.3013    5.1447   12.6436 F   0  0  0  0  0  0  0  0  0  0  0  0
  1  2  1  0
  2  3  1  0
  3  4  2  0
  4  5  1  0
  5  6  2  0
  6  7  1  0
  7  8  2  0
  7  9  1  0
  9 10  1  0
  9 11  1  0
  9 12  1  0
  5 13  1  0
 13 14  1  0
 13 15  1  0
 13 16  1  0
  2 17  1  0
 17 18  1  0
 18 19  1  0
 19 20  1  0
 20 21  1  0
 21 22  1  0
 22 23  1  0
 20 24  1  0
 24 25  1  0
 25 26  2  0
 26 27  1  0
 27 28  2  0
 27 29  1  0
 29 30  1  0
 19 31  1  0
 31 32  2  0
 32 33  1  0
 33 34  2  0
 34 35  1  0
 35 36  2  0
 34 37  1  0
  8  3  1  0
 23 18  1  0
 30 25  1  0
 36 31  1  0
M  END
$$$$
