
     RDKit          3D

 37 40  0  0  0  0  0  0  0  0999 V2000
    4.5968   -1.9315    6.9559 C   0  0  0  0  0  0  0  0  0  0  0  0
    3.7217   -1.2241    7.9825 C   0  0  0  0  0  0  0  0  0  0  0  0
    2.4970   -0.7470    7.3052 C   0  0  0  0  0  0  0  0  0  0  0  0
    2.0451    0.5504    7.3970 C   0  0  0  0  0  0  0  0  0  0  0  0
    0.8831    0.9685    6.7490 C   0  0  0  0  0  0  0  0  0  0  0  0
    0.1633    0.0702    5.9968 C   0  0  0  0  0  0  0  0  0  0  0  0
    0.5838   -1.2565    5.8750 C   0  0  0  0  0  0  0  0  0  0  0  0
    1.7286   -1.6125    6.5304 C   0  0  0  0  0  0  0  0  0  0  0  0
   -0.1818   -2.2453    5.0647 C   0  0  0  0  0  0  0  0  0  0  0  0
   -1.2627   -1.6197    4.4936 F   0  0  0  0  0  0  0  0  0  0  0  0
   -0.6774   -3.2003    5.9607 F   0  0  0  0  0  0  0  0  0  0  0  0
    0.6204   -2.8863    4.1585 F   0  0  0  0  0  0  0  0  0  0  0  0
    0.4284    2.3740    6.8719 C   0  0  0  0  0  0  0  0  0  0  0  0
   -0.0846    2.5458    8.1563 F   0  0  0  0  0  0  0  0  0  0  0  0
   -0.4858    2.7254    5.9206 F   0  0  0  0  0  0  0  0  0  0  0  0
    1.4923    3.2589    6.7676 F   0  0  0  0  0  0  0  0  0  0  0  0
    3.5334   -2.0353    9.0609 O   0  0  0  0  0  0  0  0  0  0  0  0
    2.9244   -1.3105   10.0958 C   0  0  0  0  0  0  0  0  0  0  0  0
    2.0627   -2.1972   10.9241 C   0  0  0  0  0  0  0  0  0  0  0  0
    2.7434   -2.5359   12.1425 N   0  0  0  0  0  0  0  0  0  0  0  0
    3.0464   -1.3703   12.9521 C   0  0  0  0  0  0  0  0  0  0  0  0
    3.5890   -0.3019   12.0629 C   0  0  0  0  0  0  0  0  0  0  0  0
    4.0015   -0.7805   10.8262 O   0  0  0  0  0  0  0  0  0  0  0  0
    2.1723   -3.5997   12.9045 C   0  0  0  0  0  0  0  0  0  0  0  0
    2.9234   -3.6562   14.2140 C   0  0  0  0  0  0  0  0  0  0  0  0
    2.5323   -4.3524   15.2920 N   0  0  0  0  0  0  0  0  0  0  0  0
    3.4199   -4.1795   16.2750 C   0  0  0  0  0  0  0  0  0  0  0  0
    3.3495   -4.6884   17.4041 O   0  0  0  0  0  0  0  0  0  0  0  0
    4.3747   -3.3609   15.7907 N   0  0  0  0  0  0  0  0  0  0  0  0
    4.0742   -3.0429   14.5401 N   0  0  0  0  0  0  0  0  0  0  0  0
    0.6610   -1.7875   11.0720 C   0  0  0  0  0  0  0  0  0  0  0  0
   -0.4036   -2.5673   10.7075 C   0  0  0  0  0  0  0  0  0  0  0  0
   -1.7299   -2.1750   10.8798 C   0  0  0  0  0  0  0  0  0  0  0  0
   -2.0167   -0.9615   11.4351 C   0  0  0  0  0  0  0  0  0  0  0  0
   -0.9793   -0.1496   11.8142 C   0  0  0  0  0  0  0  0  0  0  0  0
    0.3252   -0.5517   11.6377 C   0  0  0  0  0  0  0  0  0  0  0  0
   -3.2991   -0.5503   11.6160 F   0  0  0  0  0  0  0  0  0  0  0  0
  1  2  1  0
  2  3  1  0
  3  4  2  0
  4  5  1  0
  5  6  2  0
  6  7  1  0
  7  8  2  0
  7  9  1  0
  9 10  1  0
  9 11  1  0
  9 12  1  0
  5 13  1  0
 13 14  1  0
 13 15  1  0
 13 16  1  0
  2 17  1  0
 17 18  1  0
 18 19  1  0
 19 20  1  0
 20 21  1  0
 21 22  1  0
 22 23  1  0
 20 24  1  0
 24 25  1  0
 25 26  2  0
 26 27  1  0
 27 28  2  0
 27 29  1  0
 29 30  1  0
 19 31  1  0
 31 32  2  0
 32 33  1  0
 33 34  2  0
 34 35  1  0
 35 36  2  0
 34 37  1  0
  8  3  1  0
 23 18  1  0
 30 25  1  0
 36 31  1  0
M  END
$$$$
