
     RDKit          3D

 37 40  0  0  0  0  0  0  0  0999 V2000
    4.7575   -1.8316    5.8024 C   0  0  0  0  0  0  0  0  0  0  0  0
    3.9273   -1.2213    6.9242 C   0  0  0  0  0  0  0  0  0  0  0  0
    2.7116   -0.6210    6.3343 C   0  0  0  0  0  0  0  0  0  0  0  0
    1.4490   -1.1328    6.5335 C   0  0  0  0  0  0  0  0  0  0  0  0
    0.3220   -0.5454    5.9594 C   0  0  0  0  0  0  0  0  0  0  0  0
    0.4644    0.5736    5.1729 C   0  0  0  0  0  0  0  0  0  0  0  0
    1.7261    1.1279    4.9432 C   0  0  0  0  0  0  0  0  0  0  0  0
    2.7958    0.5127    5.5296 C   0  0  0  0  0  0  0  0  0  0  0  0
    1.9018    2.3399    4.0944 C   0  0  0  0  0  0  0  0  0  0  0  0
    0.6667    2.8322    3.7501 F   0  0  0  0  0  0  0  0  0  0  0  0
    2.5260    1.9165    2.9148 F   0  0  0  0  0  0  0  0  0  0  0  0
    2.7109    3.2665    4.6965 F   0  0  0  0  0  0  0  0  0  0  0  0
   -1.0212   -1.1258    6.1969 C   0  0  0  0  0  0  0  0  0  0  0  0
   -1.9676   -0.1472    5.8988 F   0  0  0  0  0  0  0  0  0  0  0  0
   -1.1812   -1.6016    7.4666 F   0  0  0  0  0  0  0  0  0  0  0  0
   -1.2768   -2.1770    5.3277 F   0  0  0  0  0  0  0  0  0  0  0  0
    3.7245   -2.1492    7.9011 O   0  0  0  0  0  0  0  0  0  0  0  0
    3.6884   -1.5165    9.1524 C   0  0  0  0  0  0  0  0  0  0  0  0
    2.7755   -2.2371   10.0811 C   0  0  0  0  0  0  0  0  0  0  0  0
    3.5432   -3.0413   10.9902 N   0  0  0  0  0  0  0  0  0  0  0  0
    4.4384   -2.2490   11.8128 C   0  0  0  0  0  0  0  0  0  0  0  0
    5.1184   -1.2443   10.9439 C   0  0  0  0  0  0  0  0  0  0  0  0
    5.0231   -1.5419    9.5908 O   0  0  0  0  0  0  0  0  0  0  0  0
    2.8099   -4.0040   11.7477 C   0  0  0  0  0  0  0  0  0  0  0  0
    2.6110   -3.4207   13.1269 C   0  0  0  0  0  0  0  0  0  0  0  0
    1.6322   -3.7733   13.9739 N   0  0  0  0  0  0  0  0  0  0  0  0
    1.7444   -3.0619   15.0987 C   0  0  0  0  0  0  0  0  0  0  0  0
    0.9932   -3.1496   16.0820 O   0  0  0  0  0  0  0  0  0  0  0  0
    2.8132   -2.2567   14.9391 N   0  0  0  0  0  0  0  0  0  0  0  0
    3.3397   -2.4738   13.7428 N   0  0  0  0  0  0  0  0  0  0  0  0
    1.7038   -1.4387   10.6883 C   0  0  0  0  0  0  0  0  0  0  0  0
    0.4763   -1.9421   11.0260 C   0  0  0  0  0  0  0  0  0  0  0  0
   -0.5218   -1.1773   11.6275 C   0  0  0  0  0  0  0  0  0  0  0  0
   -0.2979    0.1399   11.9067 C   0  0  0  0  0  0  0  0  0  0  0  0
    0.9185    0.6835   11.5846 C   0  0  0  0  0  0  0  0  0  0  0  0
    1.8940   -0.0852   10.9913 C   0  0  0  0  0  0  0  0  0  0  0  0
   -1.2507    0.9120   12.4922 F   0  0  0  0  0  0  0  0  0  0  0  0
  1  2  1  0
  2  3  1  0
  3  4  2  0
  4  5  1  0
  5  6  2  0
  6  7  1  0
  7  8  2  0
  7  9  1  0
  9 10  1  0
  9 11  1  0
  9 12  1  0
  5 13  1  0
 13 14  1  0
 13 15  1  0
 13 16  1  0
  2 17  1  0
 17 18  1  0
 18 19  1  0
 19 20  1  0
 20 21  1  0
 21 22  1  0
 22 23  1  0
 20 24  1  0
 24 25  1  0
 25 26  2  0
 26 27  1  0
 27 28  2  0
 27 29  1  0
 29 30  1  0
 19 31  1  0
 31 32  2  0
 32 33  1  0
 33 34  2  0
 34 35  1  0
 35 36  2  0
 34 37  1  0
  8  3  1  0
 23 18  1  0
 30 25  1  0
 36 31  1  0
M  END
$$$$
