
     RDKit          3D

 37 40  0  0  0  0  0  0  0  0999 V2000
    3.0642    2.1799   12.6935 C   0  0  0  0  0  0  0  0  0  0  0  0
    1.8614    1.7715   11.8528 C   0  0  0  0  0  0  0  0  0  0  0  0
    1.0459    2.9756   11.5855 C   0  0  0  0  0  0  0  0  0  0  0  0
    1.4807    4.2529   11.8594 C   0  0  0  0  0  0  0  0  0  0  0  0
    0.6855    5.3686   11.5993 C   0  0  0  0  0  0  0  0  0  0  0  0
   -0.5662    5.1995   11.0554 C   0  0  0  0  0  0  0  0  0  0  0  0
   -1.0491    3.9221   10.7608 C   0  0  0  0  0  0  0  0  0  0  0  0
   -0.2289    2.8645   11.0357 C   0  0  0  0  0  0  0  0  0  0  0  0
   -2.4022    3.7175   10.1713 C   0  0  0  0  0  0  0  0  0  0  0  0
   -2.3019    2.8688    9.0962 F   0  0  0  0  0  0  0  0  0  0  0  0
   -2.8196    4.9618    9.6834 F   0  0  0  0  0  0  0  0  0  0  0  0
   -3.3068    3.3029   11.1123 F   0  0  0  0  0  0  0  0  0  0  0  0
    1.1886    6.7283   11.9082 C   0  0  0  0  0  0  0  0  0  0  0  0
    0.0854    7.5606   12.0885 F   0  0  0  0  0  0  0  0  0  0  0  0
    2.0292    7.2179   10.9502 F   0  0  0  0  0  0  0  0  0  0  0  0
    1.8791    6.7487   13.1117 F   0  0  0  0  0  0  0  0  0  0  0  0
    2.2819    1.0769   10.7586 O   0  0  0  0  0  0  0  0  0  0  0  0
    1.2410    0.2627   10.2882 C   0  0  0  0  0  0  0  0  0  0  0  0
    1.7824   -0.9126    9.5531 C   0  0  0  0  0  0  0  0  0  0  0  0
    1.7346   -2.0758   10.3941 N   0  0  0  0  0  0  0  0  0  0  0  0
    0.3820   -2.4174   10.7935 C   0  0  0  0  0  0  0  0  0  0  0  0
   -0.3231   -1.1676   11.2026 C   0  0  0  0  0  0  0  0  0  0  0  0
    0.5428   -0.1102   11.4492 O   0  0  0  0  0  0  0  0  0  0  0  0
    2.4751   -3.2086    9.9396 C   0  0  0  0  0  0  0  0  0  0  0  0
    3.1572   -3.8033   11.1492 C   0  0  0  0  0  0  0  0  0  0  0  0
    2.8115   -4.9615   11.7315 N   0  0  0  0  0  0  0  0  0  0  0  0
    3.6135   -5.1873   12.7753 C   0  0  0  0  0  0  0  0  0  0  0  0
    3.5561   -6.1740   13.5250 O   0  0  0  0  0  0  0  0  0  0  0  0
    4.4685   -4.1473   12.8350 N   0  0  0  0  0  0  0  0  0  0  0  0
    4.1923   -3.3069   11.8486 N   0  0  0  0  0  0  0  0  0  0  0  0
    1.2971   -1.1005    8.1806 C   0  0  0  0  0  0  0  0  0  0  0  0
    1.3476   -2.2934    7.5108 C   0  0  0  0  0  0  0  0  0  0  0  0
    0.8573   -2.4624    6.2171 C   0  0  0  0  0  0  0  0  0  0  0  0
    0.2938   -1.4087    5.5572 C   0  0  0  0  0  0  0  0  0  0  0  0
    0.2234   -0.1961    6.1923 C   0  0  0  0  0  0  0  0  0  0  0  0
    0.7118   -0.0455    7.4703 C   0  0  0  0  0  0  0  0  0  0  0  0
   -0.1930   -1.5413    4.2954 F   0  0  0  0  0  0  0  0  0  0  0  0
  1  2  1  0
  2  3  1  0
  3  4  2  0
  4  5  1  0
  5  6  2  0
  6  7  1  0
  7  8  2  0
  7  9  1  0
  9 10  1  0
  9 11  1  0
  9 12  1  0
  5 13  1  0
 13 14  1  0
 13 15  1  0
 13 16  1  0
  2 17  1  0
 17 18  1  0
 18 19  1  0
 19 20  1  0
 20 21  1  0
 21 22  1  0
 22 23  1  0
 20 24  1  0
 24 25  1  0
 25 26  2  0
 26 27  1  0
 27 28  2  0
 27 29  1  0
 29 30  1  0
 19 31  1  0
 31 32  2  0
 32 33  1  0
 33 34  2  0
 34 35  1  0
 35 36  2  0
 34 37  1  0
  8  3  1  0
 23 18  1  0
 30 25  1  0
 36 31  1  0
M  END
$$$$
