
     RDKit          3D

 37 40  0  0  0  0  0  0  0  0999 V2000
    1.9342    2.9292    9.0275 C   0  0  0  0  0  0  0  0  0  0  0  0
    1.2798    1.5623    9.1804 C   0  0  0  0  0  0  0  0  0  0  0  0
    0.9528    1.0460    7.8340 C   0  0  0  0  0  0  0  0  0  0  0  0
    1.4653   -0.1310    7.3363 C   0  0  0  0  0  0  0  0  0  0  0  0
    1.1405   -0.5891    6.0598 C   0  0  0  0  0  0  0  0  0  0  0  0
    0.2876    0.1458    5.2702 C   0  0  0  0  0  0  0  0  0  0  0  0
   -0.2567    1.3462    5.7335 C   0  0  0  0  0  0  0  0  0  0  0  0
    0.0948    1.7482    6.9911 C   0  0  0  0  0  0  0  0  0  0  0  0
   -1.1828    2.1572    4.8937 C   0  0  0  0  0  0  0  0  0  0  0  0
   -2.4479    2.0900    5.4240 F   0  0  0  0  0  0  0  0  0  0  0  0
   -1.2244    1.5441    3.6356 F   0  0  0  0  0  0  0  0  0  0  0  0
   -0.7263    3.4379    4.7294 F   0  0  0  0  0  0  0  0  0  0  0  0
    1.7127   -1.8615    5.5588 C   0  0  0  0  0  0  0  0  0  0  0  0
    2.0959   -2.6209    6.6628 F   0  0  0  0  0  0  0  0  0  0  0  0
    2.7553   -1.6764    4.6969 F   0  0  0  0  0  0  0  0  0  0  0  0
    0.7571   -2.6163    4.8933 F   0  0  0  0  0  0  0  0  0  0  0  0
    2.0650    0.7624    9.9550 O   0  0  0  0  0  0  0  0  0  0  0  0
    1.2681   -0.1856   10.6136 C   0  0  0  0  0  0  0  0  0  0  0  0
    2.0937   -1.0305   11.5188 C   0  0  0  0  0  0  0  0  0  0  0  0
    1.9344   -0.5879   12.8758 N   0  0  0  0  0  0  0  0  0  0  0  0
    0.5628   -0.6946   13.3376 C   0  0  0  0  0  0  0  0  0  0  0  0
   -0.3403   -0.1752   12.2693 C   0  0  0  0  0  0  0  0  0  0  0  0
    0.3252    0.5840   11.3157 O   0  0  0  0  0  0  0  0  0  0  0  0
    2.8725   -1.1071   13.8184 C   0  0  0  0  0  0  0  0  0  0  0  0
    2.1619   -2.1891   14.5971 C   0  0  0  0  0  0  0  0  0  0  0  0
    2.6870   -2.8557   15.6362 N   0  0  0  0  0  0  0  0  0  0  0  0
    1.7963   -3.7430   16.0869 C   0  0  0  0  0  0  0  0  0  0  0  0
    1.9727   -4.5174   17.0397 O   0  0  0  0  0  0  0  0  0  0  0  0
    0.7028   -3.6187   15.3090 N   0  0  0  0  0  0  0  0  0  0  0  0
    0.9239   -2.6759   14.4047 N   0  0  0  0  0  0  0  0  0  0  0  0
    2.0101   -2.4810   11.3095 C   0  0  0  0  0  0  0  0  0  0  0  0
    0.9488   -3.1047   10.7105 C   0  0  0  0  0  0  0  0  0  0  0  0
    0.8965   -4.4806   10.4940 C   0  0  0  0  0  0  0  0  0  0  0  0
    1.9362   -5.2736   10.8859 C   0  0  0  0  0  0  0  0  0  0  0  0
    3.0188   -4.6887   11.4898 C   0  0  0  0  0  0  0  0  0  0  0  0
    3.0554   -3.3283   11.6960 C   0  0  0  0  0  0  0  0  0  0  0  0
    1.9152   -6.6180   10.6893 F   0  0  0  0  0  0  0  0  0  0  0  0
  1  2  1  0
  2  3  1  0
  3  4  2  0
  4  5  1  0
  5  6  2  0
  6  7  1  0
  7  8  2  0
  7  9  1  0
  9 10  1  0
  9 11  1  0
  9 12  1  0
  5 13  1  0
 13 14  1  0
 13 15  1  0
 13 16  1  0
  2 17  1  0
 17 18  1  0
 18 19  1  0
 19 20  1  0
 20 21  1  0
 21 22  1  0
 22 23  1  0
 20 24  1  0
 24 25  1  0
 25 26  2  0
 26 27  1  0
 27 28  2  0
 27 29  1  0
 29 30  1  0
 19 31  1  0
 31 32  2  0
 32 33  1  0
 33 34  2  0
 34 35  1  0
 35 36  2  0
 34 37  1  0
  8  3  1  0
 23 18  1  0
 30 25  1  0
 36 31  1  0
M  END
$$$$
