
     RDKit          3D

 37 40  0  0  0  0  0  0  0  0999 V2000
    0.2513   -2.1840    7.3480 C   0  0  0  0  0  0  0  0  0  0  0  0
    0.8244   -0.9545    8.0408 C   0  0  0  0  0  0  0  0  0  0  0  0
    0.2405    0.2510    7.4148 C   0  0  0  0  0  0  0  0  0  0  0  0
   -0.2733    1.3010    8.1424 C   0  0  0  0  0  0  0  0  0  0  0  0
   -0.8213    2.4231    7.5217 C   0  0  0  0  0  0  0  0  0  0  0  0
   -0.8541    2.4927    6.1488 C   0  0  0  0  0  0  0  0  0  0  0  0
   -0.3442    1.4512    5.3695 C   0  0  0  0  0  0  0  0  0  0  0  0
    0.1808    0.3758    6.0289 C   0  0  0  0  0  0  0  0  0  0  0  0
   -0.3702    1.5072    3.8807 C   0  0  0  0  0  0  0  0  0  0  0  0
   -1.1674    2.5522    3.4827 F   0  0  0  0  0  0  0  0  0  0  0  0
   -0.9825    0.3256    3.4455 F   0  0  0  0  0  0  0  0  0  0  0  0
    0.8932    1.5522    3.3539 F   0  0  0  0  0  0  0  0  0  0  0  0
   -1.3649    3.5336    8.3394 C   0  0  0  0  0  0  0  0  0  0  0  0
   -0.4332    3.8272    9.3335 F   0  0  0  0  0  0  0  0  0  0  0  0
   -2.5901    3.2546    8.8734 F   0  0  0  0  0  0  0  0  0  0  0  0
   -1.4969    4.6938    7.5896 F   0  0  0  0  0  0  0  0  0  0  0  0
    0.6603   -1.0698    9.3885 O   0  0  0  0  0  0  0  0  0  0  0  0
    1.1037   -2.3316    9.8115 C   0  0  0  0  0  0  0  0  0  0  0  0
    2.0828   -2.2003   10.9246 C   0  0  0  0  0  0  0  0  0  0  0  0
    1.4370   -2.4841   12.1756 N   0  0  0  0  0  0  0  0  0  0  0  0
    0.9122   -3.8356   12.2358 C   0  0  0  0  0  0  0  0  0  0  0  0
    0.2172   -4.1337   10.9495 C   0  0  0  0  0  0  0  0  0  0  0  0
   -0.0698   -2.9942   10.2093 O   0  0  0  0  0  0  0  0  0  0  0  0
    2.1629   -2.1245   13.3512 C   0  0  0  0  0  0  0  0  0  0  0  0
    2.9358   -3.3483   13.7834 C   0  0  0  0  0  0  0  0  0  0  0  0
    4.1672   -3.3283   14.3157 N   0  0  0  0  0  0  0  0  0  0  0  0
    4.5554   -4.5792   14.5771 C   0  0  0  0  0  0  0  0  0  0  0  0
    5.6447   -4.9043   15.0735 O   0  0  0  0  0  0  0  0  0  0  0  0
    3.5423   -5.3830   14.1978 N   0  0  0  0  0  0  0  0  0  0  0  0
    2.5592   -4.6369   13.7161 N   0  0  0  0  0  0  0  0  0  0  0  0
    3.3867   -2.8433   10.7222 C   0  0  0  0  0  0  0  0  0  0  0  0
    3.5482   -4.1829   10.4908 C   0  0  0  0  0  0  0  0  0  0  0  0
    4.7914   -4.7742   10.2731 C   0  0  0  0  0  0  0  0  0  0  0  0
    5.9225   -4.0102   10.2847 C   0  0  0  0  0  0  0  0  0  0  0  0
    5.8049   -2.6638   10.5128 C   0  0  0  0  0  0  0  0  0  0  0  0
    4.5698   -2.0948   10.7257 C   0  0  0  0  0  0  0  0  0  0  0  0
    7.1490   -4.5569   10.0761 F   0  0  0  0  0  0  0  0  0  0  0  0
  1  2  1  0
  2  3  1  0
  3  4  2  0
  4  5  1  0
  5  6  2  0
  6  7  1  0
  7  8  2  0
  7  9  1  0
  9 10  1  0
  9 11  1  0
  9 12  1  0
  5 13  1  0
 13 14  1  0
 13 15  1  0
 13 16  1  0
  2 17  1  0
 17 18  1  0
 18 19  1  0
 19 20  1  0
 20 21  1  0
 21 22  1  0
 22 23  1  0
 20 24  1  0
 24 25  1  0
 25 26  2  0
 26 27  1  0
 27 28  2  0
 27 29  1  0
 29 30  1  0
 19 31  1  0
 31 32  2  0
 32 33  1  0
 33 34  2  0
 34 35  1  0
 35 36  2  0
 34 37  1  0
  8  3  1  0
 23 18  1  0
 30 25  1  0
 36 31  1  0
M  END
$$$$
