
     RDKit          3D

 37 40  0  0  0  0  0  0  0  0999 V2000
    4.5937   -0.1456    7.4315 C   0  0  0  0  0  0  0  0  0  0  0  0
    3.1452    0.0981    7.8346 C   0  0  0  0  0  0  0  0  0  0  0  0
    2.4145   -1.1849    7.7550 C   0  0  0  0  0  0  0  0  0  0  0  0
    1.8450   -1.7939    8.8508 C   0  0  0  0  0  0  0  0  0  0  0  0
    1.1653   -3.0069    8.7434 C   0  0  0  0  0  0  0  0  0  0  0  0
    1.0554   -3.6184    7.5167 C   0  0  0  0  0  0  0  0  0  0  0  0
    1.6173   -3.0373    6.3772 C   0  0  0  0  0  0  0  0  0  0  0  0
    2.2719   -1.8490    6.5391 C   0  0  0  0  0  0  0  0  0  0  0  0
    1.5092   -3.6836    5.0389 C   0  0  0  0  0  0  0  0  0  0  0  0
    1.2424   -5.0207    5.2043 F   0  0  0  0  0  0  0  0  0  0  0  0
    2.7709   -3.5805    4.4406 F   0  0  0  0  0  0  0  0  0  0  0  0
    0.6033   -3.0406    4.2381 F   0  0  0  0  0  0  0  0  0  0  0  0
    0.5655   -3.6318    9.9464 C   0  0  0  0  0  0  0  0  0  0  0  0
   -0.7019   -3.0807   10.1264 F   0  0  0  0  0  0  0  0  0  0  0  0
    1.3346   -3.4854   11.0649 F   0  0  0  0  0  0  0  0  0  0  0  0
    0.3640   -4.9921    9.7601 F   0  0  0  0  0  0  0  0  0  0  0  0
    3.1055    0.7372    9.0372 O   0  0  0  0  0  0  0  0  0  0  0  0
    2.1792    1.7892    8.9820 C   0  0  0  0  0  0  0  0  0  0  0  0
    1.9392    2.3518   10.3387 C   0  0  0  0  0  0  0  0  0  0  0  0
    2.6725    3.5769   10.4932 N   0  0  0  0  0  0  0  0  0  0  0  0
    2.2650    4.5923    9.5400 C   0  0  0  0  0  0  0  0  0  0  0  0
    2.1398    3.9587    8.1948 C   0  0  0  0  0  0  0  0  0  0  0  0
    2.7695    2.7236    8.1143 O   0  0  0  0  0  0  0  0  0  0  0  0
    2.7736    4.0832   11.8243 C   0  0  0  0  0  0  0  0  0  0  0  0
    1.4428    4.7155   12.1575 C   0  0  0  0  0  0  0  0  0  0  0  0
    1.1558    6.0180   12.0124 N   0  0  0  0  0  0  0  0  0  0  0  0
   -0.1021    6.2389   12.4034 C   0  0  0  0  0  0  0  0  0  0  0  0
   -0.6744    7.3395   12.3941 O   0  0  0  0  0  0  0  0  0  0  0  0
   -0.5970    5.0485   12.7961 N   0  0  0  0  0  0  0  0  0  0  0  0
    0.3398    4.1236   12.6472 N   0  0  0  0  0  0  0  0  0  0  0  0
    0.5430    2.3855   10.7905 C   0  0  0  0  0  0  0  0  0  0  0  0
    0.0905    1.7504   11.9157 C   0  0  0  0  0  0  0  0  0  0  0  0
   -1.2335    1.8146   12.3466 C   0  0  0  0  0  0  0  0  0  0  0  0
   -2.1487    2.5362   11.6362 C   0  0  0  0  0  0  0  0  0  0  0  0
   -1.7368    3.1877   10.5027 C   0  0  0  0  0  0  0  0  0  0  0  0
   -0.4256    3.1148   10.0905 C   0  0  0  0  0  0  0  0  0  0  0  0
   -3.4467    2.6181   12.0301 F   0  0  0  0  0  0  0  0  0  0  0  0
  1  2  1  0
  2  3  1  0
  3  4  2  0
  4  5  1  0
  5  6  2  0
  6  7  1  0
  7  8  2  0
  7  9  1  0
  9 10  1  0
  9 11  1  0
  9 12  1  0
  5 13  1  0
 13 14  1  0
 13 15  1  0
 13 16  1  0
  2 17  1  0
 17 18  1  0
 18 19  1  0
 19 20  1  0
 20 21  1  0
 21 22  1  0
 22 23  1  0
 20 24  1  0
 24 25  1  0
 25 26  2  0
 26 27  1  0
 27 28  2  0
 27 29  1  0
 29 30  1  0
 19 31  1  0
 31 32  2  0
 32 33  1  0
 33 34  2  0
 34 35  1  0
 35 36  2  0
 34 37  1  0
  8  3  1  0
 23 18  1  0
 30 25  1  0
 36 31  1  0
M  END
$$$$
