
     RDKit          3D

 37 40  0  0  0  0  0  0  0  0999 V2000
    4.2289    1.5212    7.4932 C   0  0  0  0  0  0  0  0  0  0  0  0
    3.1924    1.4212    8.6048 C   0  0  0  0  0  0  0  0  0  0  0  0
    1.9494    0.8563    8.0372 C   0  0  0  0  0  0  0  0  0  0  0  0
    1.9151   -0.3270    7.3341 C   0  0  0  0  0  0  0  0  0  0  0  0
    0.7264   -0.8315    6.8074 C   0  0  0  0  0  0  0  0  0  0  0  0
   -0.4466   -0.1372    6.9894 C   0  0  0  0  0  0  0  0  0  0  0  0
   -0.4598    1.0678    7.6962 C   0  0  0  0  0  0  0  0  0  0  0  0
    0.7324    1.5161    8.1905 C   0  0  0  0  0  0  0  0  0  0  0  0
   -1.7200    1.8351    7.9044 C   0  0  0  0  0  0  0  0  0  0  0  0
   -2.1274    1.6878    9.2077 F   0  0  0  0  0  0  0  0  0  0  0  0
   -2.6922    1.2377    7.0930 F   0  0  0  0  0  0  0  0  0  0  0  0
   -1.5863    3.1423    7.5181 F   0  0  0  0  0  0  0  0  0  0  0  0
    0.7297   -2.1092    6.0559 C   0  0  0  0  0  0  0  0  0  0  0  0
   -0.5513   -2.3059    5.5433 F   0  0  0  0  0  0  0  0  0  0  0  0
    1.1315   -3.1730    6.8114 F   0  0  0  0  0  0  0  0  0  0  0  0
    1.5721   -2.0442    4.9550 F   0  0  0  0  0  0  0  0  0  0  0  0
    3.7234    0.7545    9.6678 O   0  0  0  0  0  0  0  0  0  0  0  0
    3.9280    1.6473   10.7301 C   0  0  0  0  0  0  0  0  0  0  0  0
    3.0530    1.3032   11.8838 C   0  0  0  0  0  0  0  0  0  0  0  0
    3.8172    0.6113   12.8837 N   0  0  0  0  0  0  0  0  0  0  0  0
    4.9048    1.4166   13.4077 C   0  0  0  0  0  0  0  0  0  0  0  0
    5.5954    2.0839   12.2656 C   0  0  0  0  0  0  0  0  0  0  0  0
    5.2925    1.5115   11.0371 O   0  0  0  0  0  0  0  0  0  0  0  0
    3.0656   -0.0320   13.9130 C   0  0  0  0  0  0  0  0  0  0  0  0
    2.4059   -1.2388   13.2882 C   0  0  0  0  0  0  0  0  0  0  0  0
    1.0859   -1.4785   13.2928 N   0  0  0  0  0  0  0  0  0  0  0  0
    0.8444   -2.6302   12.6610 C   0  0  0  0  0  0  0  0  0  0  0  0
   -0.2758   -3.1358   12.4923 O   0  0  0  0  0  0  0  0  0  0  0  0
    2.0397   -3.1068   12.2606 N   0  0  0  0  0  0  0  0  0  0  0  0
    2.9878   -2.2631   12.6409 N   0  0  0  0  0  0  0  0  0  0  0  0
    2.1800    2.3741   12.3792 C   0  0  0  0  0  0  0  0  0  0  0  0
    0.8205    2.2585   12.4917 C   0  0  0  0  0  0  0  0  0  0  0  0
    0.0078    3.2753   12.9900 C   0  0  0  0  0  0  0  0  0  0  0  0
    0.5612    4.4559   13.3940 C   0  0  0  0  0  0  0  0  0  0  0  0
    1.9195    4.6128   13.2981 C   0  0  0  0  0  0  0  0  0  0  0  0
    2.7085    3.5989   12.8041 C   0  0  0  0  0  0  0  0  0  0  0  0
   -0.2041    5.4663   13.8839 F   0  0  0  0  0  0  0  0  0  0  0  0
  1  2  1  0
  2  3  1  0
  3  4  2  0
  4  5  1  0
  5  6  2  0
  6  7  1  0
  7  8  2  0
  7  9  1  0
  9 10  1  0
  9 11  1  0
  9 12  1  0
  5 13  1  0
 13 14  1  0
 13 15  1  0
 13 16  1  0
  2 17  1  0
 17 18  1  0
 18 19  1  0
 19 20  1  0
 20 21  1  0
 21 22  1  0
 22 23  1  0
 20 24  1  0
 24 25  1  0
 25 26  2  0
 26 27  1  0
 27 28  2  0
 27 29  1  0
 29 30  1  0
 19 31  1  0
 31 32  2  0
 32 33  1  0
 33 34  2  0
 34 35  1  0
 35 36  2  0
 34 37  1  0
  8  3  1  0
 23 18  1  0
 30 25  1  0
 36 31  1  0
M  END
$$$$
