
     RDKit          3D

 37 40  0  0  0  0  0  0  0  0999 V2000
   -1.0052   -2.3153    9.2800 C   0  0  0  0  0  0  0  0  0  0  0  0
   -0.0855   -1.6032    8.2966 C   0  0  0  0  0  0  0  0  0  0  0  0
   -0.1744   -0.1477    8.5414 C   0  0  0  0  0  0  0  0  0  0  0  0
   -1.3694    0.5112    8.7250 C   0  0  0  0  0  0  0  0  0  0  0  0
   -1.4201    1.8865    8.9500 C   0  0  0  0  0  0  0  0  0  0  0  0
   -0.2527    2.6122    8.9917 C   0  0  0  0  0  0  0  0  0  0  0  0
    0.9830    1.9861    8.8109 C   0  0  0  0  0  0  0  0  0  0  0  0
    0.9749    0.6372    8.5938 C   0  0  0  0  0  0  0  0  0  0  0  0
    2.2592    2.7542    8.8524 C   0  0  0  0  0  0  0  0  0  0  0  0
    3.0924    2.1939    9.7895 F   0  0  0  0  0  0  0  0  0  0  0  0
    1.9377    4.0425    9.2967 F   0  0  0  0  0  0  0  0  0  0  0  0
    2.8266    2.8604    7.6104 F   0  0  0  0  0  0  0  0  0  0  0  0
   -2.7262    2.5605    9.1431 C   0  0  0  0  0  0  0  0  0  0  0  0
   -2.9356    3.4049    8.0543 F   0  0  0  0  0  0  0  0  0  0  0  0
   -2.8070    3.2420   10.3233 F   0  0  0  0  0  0  0  0  0  0  0  0
   -3.7719    1.6484    9.1216 F   0  0  0  0  0  0  0  0  0  0  0  0
    1.1622   -2.1469    8.3600 O   0  0  0  0  0  0  0  0  0  0  0  0
    2.1174   -1.1249    8.4630 C   0  0  0  0  0  0  0  0  0  0  0  0
    2.7809   -1.1559    9.7948 C   0  0  0  0  0  0  0  0  0  0  0  0
    4.0757   -1.7663    9.6784 N   0  0  0  0  0  0  0  0  0  0  0  0
    4.9569   -1.0343    8.7877 C   0  0  0  0  0  0  0  0  0  0  0  0
    4.1916   -0.6613    7.5623 C   0  0  0  0  0  0  0  0  0  0  0  0
    3.0155   -1.3848    7.4140 O   0  0  0  0  0  0  0  0  0  0  0  0
    4.7112   -2.1265   10.9050 C   0  0  0  0  0  0  0  0  0  0  0  0
    3.6804   -1.9695   11.9981 C   0  0  0  0  0  0  0  0  0  0  0  0
    2.7537   -2.8866   12.3146 N   0  0  0  0  0  0  0  0  0  0  0  0
    2.0032   -2.4270   13.3193 C   0  0  0  0  0  0  0  0  0  0  0  0
    1.0584   -3.0341   13.8461 O   0  0  0  0  0  0  0  0  0  0  0  0
    2.4786   -1.2037   13.6255 N   0  0  0  0  0  0  0  0  0  0  0  0
    3.4963   -0.9253   12.8243 N   0  0  0  0  0  0  0  0  0  0  0  0
    2.7320    0.0869   10.5742 C   0  0  0  0  0  0  0  0  0  0  0  0
    3.3240    0.2425   11.7988 C   0  0  0  0  0  0  0  0  0  0  0  0
    3.2919    1.4381   12.5144 C   0  0  0  0  0  0  0  0  0  0  0  0
    2.6478    2.5256   11.9989 C   0  0  0  0  0  0  0  0  0  0  0  0
    2.0416    2.4123   10.7747 C   0  0  0  0  0  0  0  0  0  0  0  0
    2.0826    1.2246   10.0803 C   0  0  0  0  0  0  0  0  0  0  0  0
    2.5986    3.7050   12.6720 F   0  0  0  0  0  0  0  0  0  0  0  0
  1  2  1  0
  2  3  1  0
  3  4  2  0
  4  5  1  0
  5  6  2  0
  6  7  1  0
  7  8  2  0
  7  9  1  0
  9 10  1  0
  9 11  1  0
  9 12  1  0
  5 13  1  0
 13 14  1  0
 13 15  1  0
 13 16  1  0
  2 17  1  0
 17 18  1  0
 18 19  1  0
 19 20  1  0
 20 21  1  0
 21 22  1  0
 22 23  1  0
 20 24  1  0
 24 25  1  0
 25 26  2  0
 26 27  1  0
 27 28  2  0
 27 29  1  0
 29 30  1  0
 19 31  1  0
 31 32  2  0
 32 33  1  0
 33 34  2  0
 34 35  1  0
 35 36  2  0
 34 37  1  0
  8  3  1  0
 23 18  1  0
 30 25  1  0
 36 31  1  0
M  END
$$$$
