
     RDKit          3D

 37 40  0  0  0  0  0  0  0  0999 V2000
   -1.2240    2.1423    8.8513 C   0  0  0  0  0  0  0  0  0  0  0  0
    0.1388    1.4621    8.8664 C   0  0  0  0  0  0  0  0  0  0  0  0
    0.5384    1.1821    7.4706 C   0  0  0  0  0  0  0  0  0  0  0  0
    0.1058    0.0766    6.7731 C   0  0  0  0  0  0  0  0  0  0  0  0
    0.5043   -0.1615    5.4581 C   0  0  0  0  0  0  0  0  0  0  0  0
    1.3505    0.7241    4.8331 C   0  0  0  0  0  0  0  0  0  0  0  0
    1.8149    1.8596    5.5016 C   0  0  0  0  0  0  0  0  0  0  0  0
    1.3933    2.0441    6.7881 C   0  0  0  0  0  0  0  0  0  0  0  0
    2.7321    2.8314    4.8423 C   0  0  0  0  0  0  0  0  0  0  0  0
    2.5477    4.0737    5.3981 F   0  0  0  0  0  0  0  0  0  0  0  0
    2.3360    2.9108    3.5017 F   0  0  0  0  0  0  0  0  0  0  0  0
    4.0328    2.4041    4.8783 F   0  0  0  0  0  0  0  0  0  0  0  0
    0.0173   -1.3633    4.7399 C   0  0  0  0  0  0  0  0  0  0  0  0
   -0.0602   -2.4077    5.6595 F   0  0  0  0  0  0  0  0  0  0  0  0
    0.7965   -1.6996    3.6704 F   0  0  0  0  0  0  0  0  0  0  0  0
   -1.2742   -1.1788    4.2668 F   0  0  0  0  0  0  0  0  0  0  0  0
    1.0128    2.2035    9.6032 O   0  0  0  0  0  0  0  0  0  0  0  0
    1.1242    1.6590   10.8912 C   0  0  0  0  0  0  0  0  0  0  0  0
    1.5755    0.2423   10.8272 C   0  0  0  0  0  0  0  0  0  0  0  0
    2.9751    0.1637   11.1395 N   0  0  0  0  0  0  0  0  0  0  0  0
    3.2731    0.6388   12.4779 C   0  0  0  0  0  0  0  0  0  0  0  0
    2.5240    1.9084   12.7096 C   0  0  0  0  0  0  0  0  0  0  0  0
    2.0582    2.4872   11.5364 O   0  0  0  0  0  0  0  0  0  0  0  0
    3.6145   -1.0778   10.8431 C   0  0  0  0  0  0  0  0  0  0  0  0
    3.6074   -1.8920   12.1155 C   0  0  0  0  0  0  0  0  0  0  0  0
    2.5888   -2.6625   12.5263 N   0  0  0  0  0  0  0  0  0  0  0  0
    2.9101   -3.2357   13.6891 C   0  0  0  0  0  0  0  0  0  0  0  0
    2.1841   -4.0074   14.3343 O   0  0  0  0  0  0  0  0  0  0  0  0
    4.1503   -2.8086   13.9982 N   0  0  0  0  0  0  0  0  0  0  0  0
    4.5742   -1.9932   13.0439 N   0  0  0  0  0  0  0  0  0  0  0  0
    0.7185   -0.7434   11.4970 C   0  0  0  0  0  0  0  0  0  0  0  0
    0.5134   -2.0151   11.0332 C   0  0  0  0  0  0  0  0  0  0  0  0
   -0.2818   -2.9488   11.6956 C   0  0  0  0  0  0  0  0  0  0  0  0
   -0.9005   -2.6120   12.8648 C   0  0  0  0  0  0  0  0  0  0  0  0
   -0.7212   -1.3480   13.3639 C   0  0  0  0  0  0  0  0  0  0  0  0
    0.0676   -0.4375   12.6981 C   0  0  0  0  0  0  0  0  0  0  0  0
   -1.6823   -3.4995   13.5340 F   0  0  0  0  0  0  0  0  0  0  0  0
  1  2  1  0
  2  3  1  0
  3  4  2  0
  4  5  1  0
  5  6  2  0
  6  7  1  0
  7  8  2  0
  7  9  1  0
  9 10  1  0
  9 11  1  0
  9 12  1  0
  5 13  1  0
 13 14  1  0
 13 15  1  0
 13 16  1  0
  2 17  1  0
 17 18  1  0
 18 19  1  0
 19 20  1  0
 20 21  1  0
 21 22  1  0
 22 23  1  0
 20 24  1  0
 24 25  1  0
 25 26  2  0
 26 27  1  0
 27 28  2  0
 27 29  1  0
 29 30  1  0
 19 31  1  0
 31 32  2  0
 32 33  1  0
 33 34  2  0
 34 35  1  0
 35 36  2  0
 34 37  1  0
  8  3  1  0
 23 18  1  0
 30 25  1  0
 36 31  1  0
M  END
$$$$
