
     RDKit          3D

 37 40  0  0  0  0  0  0  0  0999 V2000
   -0.1320    1.9449    7.2154 C   0  0  0  0  0  0  0  0  0  0  0  0
   -0.2080    0.6185    7.9604 C   0  0  0  0  0  0  0  0  0  0  0  0
    0.7690   -0.3138    7.3582 C   0  0  0  0  0  0  0  0  0  0  0  0
    1.8748   -0.7812    8.0324 C   0  0  0  0  0  0  0  0  0  0  0  0
    2.7805   -1.6572    7.4347 C   0  0  0  0  0  0  0  0  0  0  0  0
    2.5729   -2.0709    6.1399 C   0  0  0  0  0  0  0  0  0  0  0  0
    1.4644   -1.6229    5.4171 C   0  0  0  0  0  0  0  0  0  0  0  0
    0.6093   -0.7659    6.0506 C   0  0  0  0  0  0  0  0  0  0  0  0
    1.2214   -2.0592    4.0132 C   0  0  0  0  0  0  0  0  0  0  0  0
    1.1200   -0.9513    3.2079 F   0  0  0  0  0  0  0  0  0  0  0  0
   -0.0240   -2.6989    4.0018 F   0  0  0  0  0  0  0  0  0  0  0  0
    2.1660   -2.9568    3.5916 F   0  0  0  0  0  0  0  0  0  0  0  0
    3.9598   -2.1385    8.1930 C   0  0  0  0  0  0  0  0  0  0  0  0
    3.9992   -1.4488    9.4034 F   0  0  0  0  0  0  0  0  0  0  0  0
    5.1307   -2.0014    7.5045 F   0  0  0  0  0  0  0  0  0  0  0  0
    3.8320   -3.4798    8.5255 F   0  0  0  0  0  0  0  0  0  0  0  0
   -0.0819    0.8371    9.2993 O   0  0  0  0  0  0  0  0  0  0  0  0
    1.1867    0.4195    9.7279 C   0  0  0  0  0  0  0  0  0  0  0  0
    1.0814   -0.3998   10.9660 C   0  0  0  0  0  0  0  0  0  0  0  0
    1.2070   -1.7925   10.6390 N   0  0  0  0  0  0  0  0  0  0  0  0
    2.4882   -2.1080   10.0350 C   0  0  0  0  0  0  0  0  0  0  0  0
    2.8011   -1.0673    9.0125 C   0  0  0  0  0  0  0  0  0  0  0  0
    1.6925   -0.3167    8.6432 O   0  0  0  0  0  0  0  0  0  0  0  0
    0.8441   -2.7130   11.6682 C   0  0  0  0  0  0  0  0  0  0  0  0
    1.9128   -2.6278   12.7325 C   0  0  0  0  0  0  0  0  0  0  0  0
    2.6751   -3.6551   13.1367 N   0  0  0  0  0  0  0  0  0  0  0  0
    3.5102   -3.2362   14.0912 C   0  0  0  0  0  0  0  0  0  0  0  0
    4.3468   -3.9425   14.6744 O   0  0  0  0  0  0  0  0  0  0  0  0
    3.2555   -1.9258   14.2765 N   0  0  0  0  0  0  0  0  0  0  0  0
    2.2863   -1.5558   13.4524 N   0  0  0  0  0  0  0  0  0  0  0  0
    1.8707    0.0567   12.1163 C   0  0  0  0  0  0  0  0  0  0  0  0
    1.3418    0.2993   13.3555 C   0  0  0  0  0  0  0  0  0  0  0  0
    2.1095    0.7062   14.4454 C   0  0  0  0  0  0  0  0  0  0  0  0
    3.4560    0.8810   14.3051 C   0  0  0  0  0  0  0  0  0  0  0  0
    4.0257    0.6486   13.0803 C   0  0  0  0  0  0  0  0  0  0  0  0
    3.2539    0.2468   12.0138 C   0  0  0  0  0  0  0  0  0  0  0  0
    4.2316    1.2771   15.3483 F   0  0  0  0  0  0  0  0  0  0  0  0
  1  2  1  0
  2  3  1  0
  3  4  2  0
  4  5  1  0
  5  6  2  0
  6  7  1  0
  7  8  2  0
  7  9  1  0
  9 10  1  0
  9 11  1  0
  9 12  1  0
  5 13  1  0
 13 14  1  0
 13 15  1  0
 13 16  1  0
  2 17  1  0
 17 18  1  0
 18 19  1  0
 19 20  1  0
 20 21  1  0
 21 22  1  0
 22 23  1  0
 20 24  1  0
 24 25  1  0
 25 26  2  0
 26 27  1  0
 27 28  2  0
 27 29  1  0
 29 30  1  0
 19 31  1  0
 31 32  2  0
 32 33  1  0
 33 34  2  0
 34 35  1  0
 35 36  2  0
 34 37  1  0
  8  3  1  0
 23 18  1  0
 30 25  1  0
 36 31  1  0
M  END
$$$$
