
     RDKit          3D

 37 40  0  0  0  0  0  0  0  0999 V2000
   -1.3947   -1.3382    9.0071 C   0  0  0  0  0  0  0  0  0  0  0  0
   -0.0930   -0.5644    8.8428 C   0  0  0  0  0  0  0  0  0  0  0  0
    0.0660   -0.2123    7.4155 C   0  0  0  0  0  0  0  0  0  0  0  0
    0.1370    1.0872    6.9662 C   0  0  0  0  0  0  0  0  0  0  0  0
    0.2830    1.3867    5.6120 C   0  0  0  0  0  0  0  0  0  0  0  0
    0.3590    0.3656    4.6942 C   0  0  0  0  0  0  0  0  0  0  0  0
    0.2916   -0.9683    5.1041 C   0  0  0  0  0  0  0  0  0  0  0  0
    0.1484   -1.2050    6.4421 C   0  0  0  0  0  0  0  0  0  0  0  0
    0.3722   -2.0892    4.1256 C   0  0  0  0  0  0  0  0  0  0  0  0
   -0.3360   -3.1618    4.6094 F   0  0  0  0  0  0  0  0  0  0  0  0
    1.7178   -2.4712    4.0632 F   0  0  0  0  0  0  0  0  0  0  0  0
   -0.0184   -1.6965    2.8730 F   0  0  0  0  0  0  0  0  0  0  0  0
    0.3555    2.7988    5.1667 C   0  0  0  0  0  0  0  0  0  0  0  0
    1.7013    3.1348    5.0315 F   0  0  0  0  0  0  0  0  0  0  0  0
   -0.2893    3.6588    6.0084 F   0  0  0  0  0  0  0  0  0  0  0  0
   -0.2032    2.9591    3.9066 F   0  0  0  0  0  0  0  0  0  0  0  0
   -0.0632    0.4745    9.7238 O   0  0  0  0  0  0  0  0  0  0  0  0
    1.1327    0.4380   10.4559 C   0  0  0  0  0  0  0  0  0  0  0  0
    1.1750   -0.7608   11.3367 C   0  0  0  0  0  0  0  0  0  0  0  0
    2.0090   -1.7693   10.7450 N   0  0  0  0  0  0  0  0  0  0  0  0
    3.3801   -1.3260   10.5738 C   0  0  0  0  0  0  0  0  0  0  0  0
    3.3664    0.0575   10.0148 C   0  0  0  0  0  0  0  0  0  0  0  0
    2.1378    0.4137    9.4742 O   0  0  0  0  0  0  0  0  0  0  0  0
    1.9216   -3.0723   11.3217 C   0  0  0  0  0  0  0  0  0  0  0  0
    2.5324   -2.9857   12.7007 C   0  0  0  0  0  0  0  0  0  0  0  0
    2.0827   -3.6430   13.7803 N   0  0  0  0  0  0  0  0  0  0  0  0
    2.8461   -3.3373   14.8328 C   0  0  0  0  0  0  0  0  0  0  0  0
    2.6952   -3.7790   15.9821 O   0  0  0  0  0  0  0  0  0  0  0  0
    3.7829   -2.4754   14.3904 N   0  0  0  0  0  0  0  0  0  0  0  0
    3.5933   -2.2615   13.0967 N   0  0  0  0  0  0  0  0  0  0  0  0
    1.3981   -0.5096   12.7656 C   0  0  0  0  0  0  0  0  0  0  0  0
    2.3500    0.3472   13.2493 C   0  0  0  0  0  0  0  0  0  0  0  0
    2.5313    0.5960   14.6087 C   0  0  0  0  0  0  0  0  0  0  0  0
    1.7393   -0.0280   15.5288 C   0  0  0  0  0  0  0  0  0  0  0  0
    0.7735   -0.8942   15.0864 C   0  0  0  0  0  0  0  0  0  0  0  0
    0.6067   -1.1289   13.7404 C   0  0  0  0  0  0  0  0  0  0  0  0
    1.8913    0.1932   16.8610 F   0  0  0  0  0  0  0  0  0  0  0  0
  1  2  1  0
  2  3  1  0
  3  4  2  0
  4  5  1  0
  5  6  2  0
  6  7  1  0
  7  8  2  0
  7  9  1  0
  9 10  1  0
  9 11  1  0
  9 12  1  0
  5 13  1  0
 13 14  1  0
 13 15  1  0
 13 16  1  0
  2 17  1  0
 17 18  1  0
 18 19  1  0
 19 20  1  0
 20 21  1  0
 21 22  1  0
 22 23  1  0
 20 24  1  0
 24 25  1  0
 25 26  2  0
 26 27  1  0
 27 28  2  0
 27 29  1  0
 29 30  1  0
 19 31  1  0
 31 32  2  0
 32 33  1  0
 33 34  2  0
 34 35  1  0
 35 36  2  0
 34 37  1  0
  8  3  1  0
 23 18  1  0
 30 25  1  0
 36 31  1  0
M  END
$$$$
