
     RDKit          3D

 37 40  0  0  0  0  0  0  0  0999 V2000
    4.8580    0.2344    6.2551 C   0  0  0  0  0  0  0  0  0  0  0  0
    3.8281   -0.1167    7.3210 C   0  0  0  0  0  0  0  0  0  0  0  0
    2.5093   -0.2621    6.6685 C   0  0  0  0  0  0  0  0  0  0  0  0
    1.9883    0.6798    5.8100 C   0  0  0  0  0  0  0  0  0  0  0  0
    0.7386    0.5151    5.2134 C   0  0  0  0  0  0  0  0  0  0  0  0
    0.0001   -0.6132    5.4826 C   0  0  0  0  0  0  0  0  0  0  0  0
    0.4885   -1.5958    6.3473 C   0  0  0  0  0  0  0  0  0  0  0  0
    1.7180   -1.3838    6.9042 C   0  0  0  0  0  0  0  0  0  0  0  0
   -0.2959   -2.8255    6.6519 C   0  0  0  0  0  0  0  0  0  0  0  0
    0.4712   -3.9301    6.3735 F   0  0  0  0  0  0  0  0  0  0  0  0
   -1.3819   -2.8378    5.7682 F   0  0  0  0  0  0  0  0  0  0  0  0
   -0.7865   -2.8090    7.9305 F   0  0  0  0  0  0  0  0  0  0  0  0
    0.2113    1.5518    4.2944 C   0  0  0  0  0  0  0  0  0  0  0  0
   -1.1284    1.7641    4.6145 F   0  0  0  0  0  0  0  0  0  0  0  0
    0.3618    1.2254    2.9773 F   0  0  0  0  0  0  0  0  0  0  0  0
    0.8456    2.7702    4.4920 F   0  0  0  0  0  0  0  0  0  0  0  0
    4.2621   -1.1883    8.0420 O   0  0  0  0  0  0  0  0  0  0  0  0
    4.1114   -0.9273    9.4119 C   0  0  0  0  0  0  0  0  0  0  0  0
    2.7361   -1.2702    9.8656 C   0  0  0  0  0  0  0  0  0  0  0  0
    2.7502   -2.5345   10.5467 N   0  0  0  0  0  0  0  0  0  0  0  0
    3.5905   -2.5188   11.7297 C   0  0  0  0  0  0  0  0  0  0  0  0
    4.8732   -1.8349   11.3929 C   0  0  0  0  0  0  0  0  0  0  0  0
    5.0899   -1.7277   10.0254 O   0  0  0  0  0  0  0  0  0  0  0  0
    1.4757   -3.1312   10.7869 C   0  0  0  0  0  0  0  0  0  0  0  0
    1.2475   -3.0970   12.2798 C   0  0  0  0  0  0  0  0  0  0  0  0
    1.3844   -4.1498   13.1000 N   0  0  0  0  0  0  0  0  0  0  0  0
    1.1027   -3.7746   14.3505 C   0  0  0  0  0  0  0  0  0  0  0  0
    1.1352   -4.5132   15.3466 O   0  0  0  0  0  0  0  0  0  0  0  0
    0.7865   -2.4657   14.2968 N   0  0  0  0  0  0  0  0  0  0  0  0
    0.8742   -2.0537   13.0406 N   0  0  0  0  0  0  0  0  0  0  0  0
    1.9852   -0.1984   10.5306 C   0  0  0  0  0  0  0  0  0  0  0  0
    0.6598   -0.2886   10.8616 C   0  0  0  0  0  0  0  0  0  0  0  0
   -0.0325    0.7277   11.5179 C   0  0  0  0  0  0  0  0  0  0  0  0
    0.6113    1.8813   11.8612 C   0  0  0  0  0  0  0  0  0  0  0  0
    1.9393    2.0122   11.5479 C   0  0  0  0  0  0  0  0  0  0  0  0
    2.6091    0.9992   10.9000 C   0  0  0  0  0  0  0  0  0  0  0  0
   -0.0359    2.8904   12.5012 F   0  0  0  0  0  0  0  0  0  0  0  0
  1  2  1  0
  2  3  1  0
  3  4  2  0
  4  5  1  0
  5  6  2  0
  6  7  1  0
  7  8  2  0
  7  9  1  0
  9 10  1  0
  9 11  1  0
  9 12  1  0
  5 13  1  0
 13 14  1  0
 13 15  1  0
 13 16  1  0
  2 17  1  0
 17 18  1  0
 18 19  1  0
 19 20  1  0
 20 21  1  0
 21 22  1  0
 22 23  1  0
 20 24  1  0
 24 25  1  0
 25 26  2  0
 26 27  1  0
 27 28  2  0
 27 29  1  0
 29 30  1  0
 19 31  1  0
 31 32  2  0
 32 33  1  0
 33 34  2  0
 34 35  1  0
 35 36  2  0
 34 37  1  0
  8  3  1  0
 23 18  1  0
 30 25  1  0
 36 31  1  0
M  END
$$$$
