
     RDKit          3D

 37 40  0  0  0  0  0  0  0  0999 V2000
    0.5319   -0.8340    9.8261 C   0  0  0  0  0  0  0  0  0  0  0  0
    1.3767    0.1593    9.0388 C   0  0  0  0  0  0  0  0  0  0  0  0
    1.0110    0.0563    7.6098 C   0  0  0  0  0  0  0  0  0  0  0  0
    0.5259    1.1185    6.8804 C   0  0  0  0  0  0  0  0  0  0  0  0
    0.1859    0.9879    5.5342 C   0  0  0  0  0  0  0  0  0  0  0  0
    0.3355   -0.2283    4.9101 C   0  0  0  0  0  0  0  0  0  0  0  0
    0.8243   -1.3339    5.6103 C   0  0  0  0  0  0  0  0  0  0  0  0
    1.1417   -1.1503    6.9265 C   0  0  0  0  0  0  0  0  0  0  0  0
    0.9938   -2.6601    4.9525 C   0  0  0  0  0  0  0  0  0  0  0  0
    2.3069   -2.8144    4.5807 F   0  0  0  0  0  0  0  0  0  0  0  0
    0.2290   -2.6271    3.7801 F   0  0  0  0  0  0  0  0  0  0  0  0
    0.5252   -3.6787    5.7391 F   0  0  0  0  0  0  0  0  0  0  0  0
   -0.3336    2.1549    4.7822 C   0  0  0  0  0  0  0  0  0  0  0  0
   -0.5016    1.7664    3.4544 F   0  0  0  0  0  0  0  0  0  0  0  0
    0.4693    3.2549    4.8804 F   0  0  0  0  0  0  0  0  0  0  0  0
   -1.5939    2.5234    5.2313 F   0  0  0  0  0  0  0  0  0  0  0  0
    1.2684    1.3971    9.5978 O   0  0  0  0  0  0  0  0  0  0  0  0
    2.4634    1.7237   10.2557 C   0  0  0  0  0  0  0  0  0  0  0  0
    2.2822    1.6758   11.7321 C   0  0  0  0  0  0  0  0  0  0  0  0
    2.8337    0.4550   12.2499 N   0  0  0  0  0  0  0  0  0  0  0  0
    4.2580    0.3381   11.9981 C   0  0  0  0  0  0  0  0  0  0  0  0
    4.5262    0.7420   10.5869 C   0  0  0  0  0  0  0  0  0  0  0  0
    3.3820    0.7629    9.8001 O   0  0  0  0  0  0  0  0  0  0  0  0
    2.4863    0.1319   13.5964 C   0  0  0  0  0  0  0  0  0  0  0  0
    2.3899   -1.3735   13.6775 C   0  0  0  0  0  0  0  0  0  0  0  0
    2.1852   -2.0682   14.8068 N   0  0  0  0  0  0  0  0  0  0  0  0
    2.1592   -3.3732   14.5235 C   0  0  0  0  0  0  0  0  0  0  0  0
    1.9885   -4.2840   15.3482 O   0  0  0  0  0  0  0  0  0  0  0  0
    2.3517   -3.4816   13.1941 N   0  0  0  0  0  0  0  0  0  0  0  0
    2.4919   -2.2686   12.6800 N   0  0  0  0  0  0  0  0  0  0  0  0
    2.6338    2.8951   12.4698 C   0  0  0  0  0  0  0  0  0  0  0  0
    3.8928    3.4322   12.4985 C   0  0  0  0  0  0  0  0  0  0  0  0
    4.2050    4.6064   13.1815 C   0  0  0  0  0  0  0  0  0  0  0  0
    3.2329    5.2781   13.8649 C   0  0  0  0  0  0  0  0  0  0  0  0
    1.9582    4.7740   13.8616 C   0  0  0  0  0  0  0  0  0  0  0  0
    1.6659    3.6134   13.1819 C   0  0  0  0  0  0  0  0  0  0  0  0
    3.5055    6.4251   14.5406 F   0  0  0  0  0  0  0  0  0  0  0  0
  1  2  1  0
  2  3  1  0
  3  4  2  0
  4  5  1  0
  5  6  2  0
  6  7  1  0
  7  8  2  0
  7  9  1  0
  9 10  1  0
  9 11  1  0
  9 12  1  0
  5 13  1  0
 13 14  1  0
 13 15  1  0
 13 16  1  0
  2 17  1  0
 17 18  1  0
 18 19  1  0
 19 20  1  0
 20 21  1  0
 21 22  1  0
 22 23  1  0
 20 24  1  0
 24 25  1  0
 25 26  2  0
 26 27  1  0
 27 28  2  0
 27 29  1  0
 29 30  1  0
 19 31  1  0
 31 32  2  0
 32 33  1  0
 33 34  2  0
 34 35  1  0
 35 36  2  0
 34 37  1  0
  8  3  1  0
 23 18  1  0
 30 25  1  0
 36 31  1  0
M  END
$$$$
