
     RDKit          3D

 37 40  0  0  0  0  0  0  0  0999 V2000
    1.3759   -2.2476    4.9817 C   0  0  0  0  0  0  0  0  0  0  0  0
    1.9063   -1.5837    6.2458 C   0  0  0  0  0  0  0  0  0  0  0  0
    1.0541   -0.4154    6.5544 C   0  0  0  0  0  0  0  0  0  0  0  0
    0.0275   -0.4561    7.4710 C   0  0  0  0  0  0  0  0  0  0  0  0
   -0.7613    0.6628    7.7368 C   0  0  0  0  0  0  0  0  0  0  0  0
   -0.5157    1.8414    7.0724 C   0  0  0  0  0  0  0  0  0  0  0  0
    0.5155    1.9294    6.1340 C   0  0  0  0  0  0  0  0  0  0  0  0
    1.2571    0.8036    5.9121 C   0  0  0  0  0  0  0  0  0  0  0  0
    0.7980    3.1970    5.4034 C   0  0  0  0  0  0  0  0  0  0  0  0
    0.3923    3.0650    4.0979 F   0  0  0  0  0  0  0  0  0  0  0  0
    2.1894    3.3533    5.3943 F   0  0  0  0  0  0  0  0  0  0  0  0
    0.2511    4.2800    6.0387 F   0  0  0  0  0  0  0  0  0  0  0  0
   -1.8581    0.5798    8.7307 C   0  0  0  0  0  0  0  0  0  0  0  0
   -1.7728    1.7006    9.5547 F   0  0  0  0  0  0  0  0  0  0  0  0
   -1.8340   -0.5750    9.4586 F   0  0  0  0  0  0  0  0  0  0  0  0
   -3.1007    0.6544    8.1174 F   0  0  0  0  0  0  0  0  0  0  0  0
    2.0303   -2.5134    7.2341 O   0  0  0  0  0  0  0  0  0  0  0  0
    2.7312   -1.9608    8.3162 C   0  0  0  0  0  0  0  0  0  0  0  0
    2.2632   -2.5468    9.6017 C   0  0  0  0  0  0  0  0  0  0  0  0
    3.2009   -3.5358   10.0547 N   0  0  0  0  0  0  0  0  0  0  0  0
    4.5184   -2.9800   10.3020 C   0  0  0  0  0  0  0  0  0  0  0  0
    4.8727   -2.0746    9.1702 C   0  0  0  0  0  0  0  0  0  0  0  0
    4.0762   -2.2676    8.0491 O   0  0  0  0  0  0  0  0  0  0  0  0
    2.7554   -4.3833   11.1137 C   0  0  0  0  0  0  0  0  0  0  0  0
    3.2223   -3.7560   12.4061 C   0  0  0  0  0  0  0  0  0  0  0  0
    2.4702   -3.6242   13.5093 N   0  0  0  0  0  0  0  0  0  0  0  0
    3.1873   -3.0244   14.4632 C   0  0  0  0  0  0  0  0  0  0  0  0
    2.7821   -2.7555   15.6044 O   0  0  0  0  0  0  0  0  0  0  0  0
    4.4036   -2.7834   13.9352 N   0  0  0  0  0  0  0  0  0  0  0  0
    4.4257   -3.2270   12.6870 N   0  0  0  0  0  0  0  0  0  0  0  0
    1.8016   -1.5953   10.6196 C   0  0  0  0  0  0  0  0  0  0  0  0
    0.5137   -1.5369   11.0801 C   0  0  0  0  0  0  0  0  0  0  0  0
    0.0970   -0.6456   12.0674 C   0  0  0  0  0  0  0  0  0  0  0  0
    0.9900    0.2246   12.6228 C   0  0  0  0  0  0  0  0  0  0  0  0
    2.2903    0.1989   12.1900 C   0  0  0  0  0  0  0  0  0  0  0  0
    2.6862   -0.6877   11.2144 C   0  0  0  0  0  0  0  0  0  0  0  0
    0.6148    1.1057   13.5869 F   0  0  0  0  0  0  0  0  0  0  0  0
  1  2  1  0
  2  3  1  0
  3  4  2  0
  4  5  1  0
  5  6  2  0
  6  7  1  0
  7  8  2  0
  7  9  1  0
  9 10  1  0
  9 11  1  0
  9 12  1  0
  5 13  1  0
 13 14  1  0
 13 15  1  0
 13 16  1  0
  2 17  1  0
 17 18  1  0
 18 19  1  0
 19 20  1  0
 20 21  1  0
 21 22  1  0
 22 23  1  0
 20 24  1  0
 24 25  1  0
 25 26  2  0
 26 27  1  0
 27 28  2  0
 27 29  1  0
 29 30  1  0
 19 31  1  0
 31 32  2  0
 32 33  1  0
 33 34  2  0
 34 35  1  0
 35 36  2  0
 34 37  1  0
  8  3  1  0
 23 18  1  0
 30 25  1  0
 36 31  1  0
M  END
$$$$
