
     RDKit          3D

 37 40  0  0  0  0  0  0  0  0999 V2000
    4.5176   -1.9117    6.2224 C   0  0  0  0  0  0  0  0  0  0  0  0
    3.6321   -1.1608    7.2083 C   0  0  0  0  0  0  0  0  0  0  0  0
    2.5287   -0.5249    6.4570 C   0  0  0  0  0  0  0  0  0  0  0  0
    1.5619   -1.2440    5.7905 C   0  0  0  0  0  0  0  0  0  0  0  0
    0.5358   -0.6142    5.0870 C   0  0  0  0  0  0  0  0  0  0  0  0
    0.4788    0.7593    5.0518 C   0  0  0  0  0  0  0  0  0  0  0  0
    1.4380    1.5300    5.7135 C   0  0  0  0  0  0  0  0  0  0  0  0
    2.4211    0.8619    6.3872 C   0  0  0  0  0  0  0  0  0  0  0  0
    1.3941    3.0192    5.6878 C   0  0  0  0  0  0  0  0  0  0  0  0
    1.4837    3.4505    4.3869 F   0  0  0  0  0  0  0  0  0  0  0  0
    2.5407    3.4660    6.3557 F   0  0  0  0  0  0  0  0  0  0  0  0
    0.2981    3.5047    6.3502 F   0  0  0  0  0  0  0  0  0  0  0  0
   -0.4870   -1.4228    4.3815 C   0  0  0  0  0  0  0  0  0  0  0  0
   -0.0435   -2.7438    4.3564 F   0  0  0  0  0  0  0  0  0  0  0  0
   -0.7566   -0.9650    3.1239 F   0  0  0  0  0  0  0  0  0  0  0  0
   -1.6861   -1.4391    5.0799 F   0  0  0  0  0  0  0  0  0  0  0  0
    3.2653   -1.9945    8.2217 O   0  0  0  0  0  0  0  0  0  0  0  0
    3.3871   -1.3267    9.4492 C   0  0  0  0  0  0  0  0  0  0  0  0
    2.9296   -2.1942   10.5687 C   0  0  0  0  0  0  0  0  0  0  0  0
    4.0661   -2.7503   11.2480 N   0  0  0  0  0  0  0  0  0  0  0  0
    4.9196   -1.7308   11.8293 C   0  0  0  0  0  0  0  0  0  0  0  0
    5.1050   -0.6390   10.8291 C   0  0  0  0  0  0  0  0  0  0  0  0
    4.7547   -1.0171    9.5396 O   0  0  0  0  0  0  0  0  0  0  0  0
    3.7932   -3.8193   12.1542 C   0  0  0  0  0  0  0  0  0  0  0  0
    2.8562   -3.2759   13.2072 C   0  0  0  0  0  0  0  0  0  0  0  0
    3.2372   -2.5589   14.2753 N   0  0  0  0  0  0  0  0  0  0  0  0
    2.1617   -2.2440   15.0019 C   0  0  0  0  0  0  0  0  0  0  0  0
    2.1727   -1.5855   16.0531 O   0  0  0  0  0  0  0  0  0  0  0  0
    1.0996   -2.7782   14.3674 N   0  0  0  0  0  0  0  0  0  0  0  0
    1.5201   -3.4045   13.2782 N   0  0  0  0  0  0  0  0  0  0  0  0
    1.8808   -1.6399   11.4333 C   0  0  0  0  0  0  0  0  0  0  0  0
    1.0648   -0.6017   11.0720 C   0  0  0  0  0  0  0  0  0  0  0  0
    0.0549   -0.1045   11.8939 C   0  0  0  0  0  0  0  0  0  0  0  0
   -0.1577   -0.6558   13.1244 C   0  0  0  0  0  0  0  0  0  0  0  0
    0.6377   -1.6979   13.5250 C   0  0  0  0  0  0  0  0  0  0  0  0
    1.6307   -2.1777   12.7014 C   0  0  0  0  0  0  0  0  0  0  0  0
   -1.1339   -0.1935   13.9490 F   0  0  0  0  0  0  0  0  0  0  0  0
  1  2  1  0
  2  3  1  0
  3  4  2  0
  4  5  1  0
  5  6  2  0
  6  7  1  0
  7  8  2  0
  7  9  1  0
  9 10  1  0
  9 11  1  0
  9 12  1  0
  5 13  1  0
 13 14  1  0
 13 15  1  0
 13 16  1  0
  2 17  1  0
 17 18  1  0
 18 19  1  0
 19 20  1  0
 20 21  1  0
 21 22  1  0
 22 23  1  0
 20 24  1  0
 24 25  1  0
 25 26  2  0
 26 27  1  0
 27 28  2  0
 27 29  1  0
 29 30  1  0
 19 31  1  0
 31 32  2  0
 32 33  1  0
 33 34  2  0
 34 35  1  0
 35 36  2  0
 34 37  1  0
  8  3  1  0
 23 18  1  0
 30 25  1  0
 36 31  1  0
M  END
$$$$
