
     RDKit          3D

 22 24  0  0  0  0  0  0  0  0999 V2000
   -1.1712    2.3251    9.6974 C   0  0  0  0  0  0  0  0  0  0  0  0
   -1.3008    1.2929   10.8242 C   0  0  0  0  0  0  0  0  0  0  0  0
   -1.2504    2.0235   12.1728 C   0  0  0  0  0  0  0  0  0  0  0  0
   -0.1758    0.4144   10.7598 N   0  0  0  0  0  0  0  0  0  0  0  0
   -0.5350   -0.9460   10.8773 C   0  0  0  0  0  0  0  0  0  0  0  0
    0.5620   -1.9602   10.7580 C   0  0  0  0  0  0  0  0  0  0  0  0
    1.1892   -1.7658    9.3789 C   0  0  0  0  0  0  0  0  0  0  0  0
    2.2119   -2.7328    9.2841 O   0  0  0  0  0  0  0  0  0  0  0  0
    2.7266   -3.0368    8.0484 C   0  0  0  0  0  0  0  0  0  0  0  0
    2.0341   -2.7577    6.8951 C   0  0  0  0  0  0  0  0  0  0  0  0
    2.5911   -3.0817    5.6624 C   0  0  0  0  0  0  0  0  0  0  0  0
    3.8389   -3.6828    5.6087 C   0  0  0  0  0  0  0  0  0  0  0  0
    4.5509   -3.9710    6.7639 C   0  0  0  0  0  0  0  0  0  0  0  0
    3.9620   -3.6332    7.9591 C   0  0  0  0  0  0  0  0  0  0  0  0
    4.8550   -4.0175    8.9426 C   0  0  0  0  0  0  0  0  0  0  0  0
    4.7685   -3.9140   10.3204 C   0  0  0  0  0  0  0  0  0  0  0  0
    5.7882   -4.3677   11.1297 C   0  0  0  0  0  0  0  0  0  0  0  0
    6.8998   -4.9284   10.5380 C   0  0  0  0  0  0  0  0  0  0  0  0
    6.9884   -5.0325    9.1677 C   0  0  0  0  0  0  0  0  0  0  0  0
    5.9714   -4.5802    8.3548 C   0  0  0  0  0  0  0  0  0  0  0  0
    5.7376   -4.5284    7.0283 N   0  0  0  0  0  0  0  0  0  0  0  0
    0.2158   -3.2640   10.9616 O   0  0  0  0  0  0  0  0  0  0  0  0
  1  2  1  0
  2  3  1  0
  2  4  1  0
  4  5  1  0
  5  6  1  0
  6  7  1  0
  7  8  1  0
  8  9  1  0
  9 10  2  0
 10 11  1  0
 11 12  2  0
 12 13  1  0
 13 14  2  0
 14 15  1  0
 15 16  2  0
 16 17  1  0
 17 18  2  0
 18 19  1  0
 19 20  2  0
 20 21  1  0
  6 22  1  0
 14  9  1  0
 21 13  1  0
 20 15  1  0
M  END
$$$$
