
     RDKit          3D

 22 24  0  0  0  0  0  0  0  0999 V2000
    6.0893   -5.2878    5.2507 C   0  0  0  0  0  0  0  0  0  0  0  0
    4.9632   -4.8753    6.2063 C   0  0  0  0  0  0  0  0  0  0  0  0
    3.9076   -4.0892    5.4173 C   0  0  0  0  0  0  0  0  0  0  0  0
    5.5111   -4.0016    7.1954 N   0  0  0  0  0  0  0  0  0  0  0  0
    4.6545   -3.8218    8.3032 C   0  0  0  0  0  0  0  0  0  0  0  0
    4.6131   -2.4597    8.9271 C   0  0  0  0  0  0  0  0  0  0  0  0
    3.2841   -1.8300    8.5146 C   0  0  0  0  0  0  0  0  0  0  0  0
    2.7831   -1.2006    9.6734 O   0  0  0  0  0  0  0  0  0  0  0  0
    1.5224   -0.6583    9.6429 C   0  0  0  0  0  0  0  0  0  0  0  0
    0.7127   -0.7885    8.5406 C   0  0  0  0  0  0  0  0  0  0  0  0
   -0.5585   -0.2240    8.5500 C   0  0  0  0  0  0  0  0  0  0  0  0
   -0.9966    0.4643    9.6704 C   0  0  0  0  0  0  0  0  0  0  0  0
   -0.1913    0.6046   10.7913 C   0  0  0  0  0  0  0  0  0  0  0  0
    1.0565    0.0305   10.7375 C   0  0  0  0  0  0  0  0  0  0  0  0
    1.6526    0.3069   11.9544 C   0  0  0  0  0  0  0  0  0  0  0  0
    2.9060   -0.0318   12.4346 C   0  0  0  0  0  0  0  0  0  0  0  0
    3.3076    0.3509   13.6967 C   0  0  0  0  0  0  0  0  0  0  0  0
    2.4334    1.0800   14.4740 C   0  0  0  0  0  0  0  0  0  0  0  0
    1.1860    1.4182   13.9988 C   0  0  0  0  0  0  0  0  0  0  0  0
    0.7803    1.0377   12.7377 C   0  0  0  0  0  0  0  0  0  0  0  0
   -0.3272    1.1923   11.9850 N   0  0  0  0  0  0  0  0  0  0  0  0
    5.6584   -1.6275    8.6514 O   0  0  0  0  0  0  0  0  0  0  0  0
  1  2  1  0
  2  3  1  0
  2  4  1  0
  4  5  1  0
  5  6  1  0
  6  7  1  0
  7  8  1  0
  8  9  1  0
  9 10  2  0
 10 11  1  0
 11 12  2  0
 12 13  1  0
 13 14  2  0
 14 15  1  0
 15 16  2  0
 16 17  1  0
 17 18  2  0
 18 19  1  0
 19 20  2  0
 20 21  1  0
  6 22  1  0
 14  9  1  0
 21 13  1  0
 20 15  1  0
M  END
$$$$
