
     RDKit          3D

 22 24  0  0  0  0  0  0  0  0999 V2000
    0.7248    1.7486   11.4175 C   0  0  0  0  0  0  0  0  0  0  0  0
    0.2923    0.2931   11.6328 C   0  0  0  0  0  0  0  0  0  0  0  0
    1.0082   -0.2576   12.8734 C   0  0  0  0  0  0  0  0  0  0  0  0
    0.7185   -0.4735   10.5049 N   0  0  0  0  0  0  0  0  0  0  0  0
   -0.2365   -0.4971    9.4654 C   0  0  0  0  0  0  0  0  0  0  0  0
    0.0254   -1.4164    8.3110 C   0  0  0  0  0  0  0  0  0  0  0  0
    1.4518   -1.1350    7.8426 C   0  0  0  0  0  0  0  0  0  0  0  0
    2.2370   -2.1900    8.3526 O   0  0  0  0  0  0  0  0  0  0  0  0
    3.0141   -2.9188    7.4870 C   0  0  0  0  0  0  0  0  0  0  0  0
    2.7126   -3.0011    6.1491 C   0  0  0  0  0  0  0  0  0  0  0  0
    3.5259   -3.7502    5.3052 C   0  0  0  0  0  0  0  0  0  0  0  0
    4.6325   -4.4062    5.8211 C   0  0  0  0  0  0  0  0  0  0  0  0
    4.9506   -4.3329    7.1695 C   0  0  0  0  0  0  0  0  0  0  0  0
    4.1193   -3.5816    7.9656 C   0  0  0  0  0  0  0  0  0  0  0  0
    4.6411   -3.6666    9.2435 C   0  0  0  0  0  0  0  0  0  0  0  0
    4.2011   -3.1039   10.4293 C   0  0  0  0  0  0  0  0  0  0  0  0
    4.8797   -3.3198   11.6099 C   0  0  0  0  0  0  0  0  0  0  0  0
    6.0091   -4.1097   11.5862 C   0  0  0  0  0  0  0  0  0  0  0  0
    6.4490   -4.6705   10.4079 C   0  0  0  0  0  0  0  0  0  0  0  0
    5.7737   -4.4574    9.2254 C   0  0  0  0  0  0  0  0  0  0  0  0
    5.9196   -4.8381    7.9406 N   0  0  0  0  0  0  0  0  0  0  0  0
   -0.8545   -1.3589    7.2700 O   0  0  0  0  0  0  0  0  0  0  0  0
  1  2  1  0
  2  3  1  0
  2  4  1  0
  4  5  1  0
  5  6  1  0
  6  7  1  0
  7  8  1  0
  8  9  1  0
  9 10  2  0
 10 11  1  0
 11 12  2  0
 12 13  1  0
 13 14  2  0
 14 15  1  0
 15 16  2  0
 16 17  1  0
 17 18  2  0
 18 19  1  0
 19 20  2  0
 20 21  1  0
  6 22  1  0
 14  9  1  0
 21 13  1  0
 20 15  1  0
M  END
$$$$
