
     RDKit          3D

 22 24  0  0  0  0  0  0  0  0999 V2000
   -2.6925    0.7603   10.3475 C   0  0  0  0  0  0  0  0  0  0  0  0
   -2.2090   -0.6886   10.2107 C   0  0  0  0  0  0  0  0  0  0  0  0
   -2.5950   -1.4610   11.4792 C   0  0  0  0  0  0  0  0  0  0  0  0
   -0.7831   -0.6794   10.1204 N   0  0  0  0  0  0  0  0  0  0  0  0
   -0.3162   -0.2555    8.8572 C   0  0  0  0  0  0  0  0  0  0  0  0
    1.1661   -0.2550    8.6360 C   0  0  0  0  0  0  0  0  0  0  0  0
    1.4792   -1.4724    7.7684 C   0  0  0  0  0  0  0  0  0  0  0  0
    2.7119   -1.9710    8.2395 O   0  0  0  0  0  0  0  0  0  0  0  0
    3.3962   -2.8824    7.4744 C   0  0  0  0  0  0  0  0  0  0  0  0
    2.9854   -3.2032    6.2032 C   0  0  0  0  0  0  0  0  0  0  0  0
    3.7071   -4.1320    5.4607 C   0  0  0  0  0  0  0  0  0  0  0  0
    4.8334   -4.7249    6.0093 C   0  0  0  0  0  0  0  0  0  0  0  0
    5.2613   -4.4117    7.2913 C   0  0  0  0  0  0  0  0  0  0  0  0
    4.5179   -3.4890    7.9880 C   0  0  0  0  0  0  0  0  0  0  0  0
    5.1387   -3.3530    9.2162 C   0  0  0  0  0  0  0  0  0  0  0  0
    4.8115   -2.5583   10.3015 C   0  0  0  0  0  0  0  0  0  0  0  0
    5.5771   -2.5758   11.4480 C   0  0  0  0  0  0  0  0  0  0  0  0
    6.6789   -3.4029   11.4925 C   0  0  0  0  0  0  0  0  0  0  0  0
    7.0066   -4.1944   10.4143 C   0  0  0  0  0  0  0  0  0  0  0  0
    6.2441   -4.1801    9.2662 C   0  0  0  0  0  0  0  0  0  0  0  0
    6.2752   -4.8026    8.0710 N   0  0  0  0  0  0  0  0  0  0  0  0
    1.9519   -0.2303    9.7510 O   0  0  0  0  0  0  0  0  0  0  0  0
  1  2  1  0
  2  3  1  0
  2  4  1  0
  4  5  1  0
  5  6  1  0
  6  7  1  0
  7  8  1  0
  8  9  1  0
  9 10  2  0
 10 11  1  0
 11 12  2  0
 12 13  1  0
 13 14  2  0
 14 15  1  0
 15 16  2  0
 16 17  1  0
 17 18  2  0
 18 19  1  0
 19 20  2  0
 20 21  1  0
  6 22  1  0
 14  9  1  0
 21 13  1  0
 20 15  1  0
M  END
$$$$
