
     RDKit          3D

 22 24  0  0  0  0  0  0  0  0999 V2000
    0.7383   -1.0977   11.8385 C   0  0  0  0  0  0  0  0  0  0  0  0
   -0.1813   -0.8212   10.6428 C   0  0  0  0  0  0  0  0  0  0  0  0
   -1.4933   -1.5928   10.8386 C   0  0  0  0  0  0  0  0  0  0  0  0
    0.4509   -1.3243    9.4643 N   0  0  0  0  0  0  0  0  0  0  0  0
   -0.0836   -0.7755    8.2784 C   0  0  0  0  0  0  0  0  0  0  0  0
    0.7978   -0.7657    7.0663 C   0  0  0  0  0  0  0  0  0  0  0  0
    1.2471   -2.2080    6.8407 C   0  0  0  0  0  0  0  0  0  0  0  0
    2.5336   -2.3016    7.4116 O   0  0  0  0  0  0  0  0  0  0  0  0
    3.3842   -3.2869    6.9756 C   0  0  0  0  0  0  0  0  0  0  0  0
    3.2424   -3.8584    5.7342 C   0  0  0  0  0  0  0  0  0  0  0  0
    4.1257   -4.8540    5.3302 C   0  0  0  0  0  0  0  0  0  0  0  0
    5.1402   -5.2603    6.1827 C   0  0  0  0  0  0  0  0  0  0  0  0
    5.2968   -4.6931    7.4391 C   0  0  0  0  0  0  0  0  0  0  0  0
    4.4015   -3.7131    7.7960 C   0  0  0  0  0  0  0  0  0  0  0  0
    4.7634   -3.3164    9.0704 C   0  0  0  0  0  0  0  0  0  0  0  0
    4.2035   -2.3637    9.9042 C   0  0  0  0  0  0  0  0  0  0  0  0
    4.7283   -2.1223   11.1561 C   0  0  0  0  0  0  0  0  0  0  0  0
    5.8257   -2.8508   11.5626 C   0  0  0  0  0  0  0  0  0  0  0  0
    6.3846   -3.7990   10.7351 C   0  0  0  0  0  0  0  0  0  0  0  0
    5.8632   -4.0436    9.4829 C   0  0  0  0  0  0  0  0  0  0  0  0
    6.1493   -4.8673    8.4549 N   0  0  0  0  0  0  0  0  0  0  0  0
    1.8651    0.0837    7.0918 O   0  0  0  0  0  0  0  0  0  0  0  0
  1  2  1  0
  2  3  1  0
  2  4  1  0
  4  5  1  0
  5  6  1  0
  6  7  1  0
  7  8  1  0
  8  9  1  0
  9 10  2  0
 10 11  1  0
 11 12  2  0
 12 13  1  0
 13 14  2  0
 14 15  1  0
 15 16  2  0
 16 17  1  0
 17 18  2  0
 18 19  1  0
 19 20  2  0
 20 21  1  0
  6 22  1  0
 14  9  1  0
 21 13  1  0
 20 15  1  0
M  END
$$$$
