
     RDKit          3D

 22 24  0  0  0  0  0  0  0  0999 V2000
   -0.4829    1.9279   12.3825 C   0  0  0  0  0  0  0  0  0  0  0  0
   -1.5490    1.4096   11.4096 C   0  0  0  0  0  0  0  0  0  0  0  0
   -2.8467    1.1539   12.1878 C   0  0  0  0  0  0  0  0  0  0  0  0
   -1.1033    0.1601   10.8789 N   0  0  0  0  0  0  0  0  0  0  0  0
   -0.2310    0.3114    9.7791 C   0  0  0  0  0  0  0  0  0  0  0  0
    0.3306   -0.9373    9.1693 C   0  0  0  0  0  0  0  0  0  0  0  0
    1.4493   -1.4111   10.0950 C   0  0  0  0  0  0  0  0  0  0  0  0
    2.4322   -1.9705    9.2518 O   0  0  0  0  0  0  0  0  0  0  0  0
    3.5545   -2.5244    9.8156 C   0  0  0  0  0  0  0  0  0  0  0  0
    3.8772   -2.3056   11.1331 C   0  0  0  0  0  0  0  0  0  0  0  0
    5.0236   -2.8854   11.6662 C   0  0  0  0  0  0  0  0  0  0  0  0
    5.8296   -3.6782   10.8642 C   0  0  0  0  0  0  0  0  0  0  0  0
    5.5176   -3.9089    9.5323 C   0  0  0  0  0  0  0  0  0  0  0  0
    4.3757   -3.3161    9.0484 C   0  0  0  0  0  0  0  0  0  0  0  0
    4.2883   -3.6919    7.7204 C   0  0  0  0  0  0  0  0  0  0  0  0
    3.3392   -3.3793    6.7622 C   0  0  0  0  0  0  0  0  0  0  0  0
    3.4439   -3.8668    5.4768 C   0  0  0  0  0  0  0  0  0  0  0  0
    4.5160   -4.6745    5.1633 C   0  0  0  0  0  0  0  0  0  0  0  0
    5.4614   -4.9870    6.1145 C   0  0  0  0  0  0  0  0  0  0  0  0
    5.3607   -4.5019    7.4007 C   0  0  0  0  0  0  0  0  0  0  0  0
    6.0790   -4.6037    8.5369 N   0  0  0  0  0  0  0  0  0  0  0  0
    0.7646   -0.8473    7.8790 O   0  0  0  0  0  0  0  0  0  0  0  0
  1  2  1  0
  2  3  1  0
  2  4  1  0
  4  5  1  0
  5  6  1  0
  6  7  1  0
  7  8  1  0
  8  9  1  0
  9 10  2  0
 10 11  1  0
 11 12  2  0
 12 13  1  0
 13 14  2  0
 14 15  1  0
 15 16  2  0
 16 17  1  0
 17 18  2  0
 18 19  1  0
 19 20  2  0
 20 21  1  0
  6 22  1  0
 14  9  1  0
 21 13  1  0
 20 15  1  0
M  END
$$$$
