
     RDKit          3D

 22 24  0  0  0  0  0  0  0  0999 V2000
   -3.5776   -1.2797   10.7693 C   0  0  0  0  0  0  0  0  0  0  0  0
   -2.4928   -0.1972   10.8262 C   0  0  0  0  0  0  0  0  0  0  0  0
   -3.1500    1.1735   10.6164 C   0  0  0  0  0  0  0  0  0  0  0  0
   -1.5828   -0.4164    9.7467 N   0  0  0  0  0  0  0  0  0  0  0  0
   -0.3394   -0.9311   10.1735 C   0  0  0  0  0  0  0  0  0  0  0  0
    0.7168   -1.1331    9.1296 C   0  0  0  0  0  0  0  0  0  0  0  0
    2.0497   -1.2312    9.8691 C   0  0  0  0  0  0  0  0  0  0  0  0
    2.8420   -2.1204    9.1131 O   0  0  0  0  0  0  0  0  0  0  0  0
    4.0610   -2.5104    9.6093 C   0  0  0  0  0  0  0  0  0  0  0  0
    4.4803   -2.1299   10.8611 C   0  0  0  0  0  0  0  0  0  0  0  0
    5.7230   -2.5466   11.3267 C   0  0  0  0  0  0  0  0  0  0  0  0
    6.5264   -3.3415   10.5244 C   0  0  0  0  0  0  0  0  0  0  0  0
    6.1176   -3.7343    9.2583 C   0  0  0  0  0  0  0  0  0  0  0  0
    4.8827   -3.2994    8.8397 C   0  0  0  0  0  0  0  0  0  0  0  0
    4.7111   -3.8153    7.5681 C   0  0  0  0  0  0  0  0  0  0  0  0
    3.6515   -3.6890    6.6863 C   0  0  0  0  0  0  0  0  0  0  0  0
    3.6853   -4.2939    5.4478 C   0  0  0  0  0  0  0  0  0  0  0  0
    4.7989   -5.0298    5.1036 C   0  0  0  0  0  0  0  0  0  0  0  0
    5.8543   -5.1570    5.9790 C   0  0  0  0  0  0  0  0  0  0  0  0
    5.8248   -4.5540    7.2181 C   0  0  0  0  0  0  0  0  0  0  0  0
    6.6512   -4.4739    8.2800 N   0  0  0  0  0  0  0  0  0  0  0  0
    0.7758   -0.2061    8.1303 O   0  0  0  0  0  0  0  0  0  0  0  0
  1  2  1  0
  2  3  1  0
  2  4  1  0
  4  5  1  0
  5  6  1  0
  6  7  1  0
  7  8  1  0
  8  9  1  0
  9 10  2  0
 10 11  1  0
 11 12  2  0
 12 13  1  0
 13 14  2  0
 14 15  1  0
 15 16  2  0
 16 17  1  0
 17 18  2  0
 18 19  1  0
 19 20  2  0
 20 21  1  0
  6 22  1  0
 14  9  1  0
 21 13  1  0
 20 15  1  0
M  END
$$$$
