
     RDKit          3D

 22 24  0  0  0  0  0  0  0  0999 V2000
   -0.6927    0.0044   11.6150 C   0  0  0  0  0  0  0  0  0  0  0  0
    0.7534   -0.1519   11.1294 C   0  0  0  0  0  0  0  0  0  0  0  0
    1.5824    1.0276   11.6553 C   0  0  0  0  0  0  0  0  0  0  0  0
    0.7572   -0.0879    9.7020 N   0  0  0  0  0  0  0  0  0  0  0  0
    0.2240   -1.2481    9.0996 C   0  0  0  0  0  0  0  0  0  0  0  0
    0.2381   -1.3147    7.6024 C   0  0  0  0  0  0  0  0  0  0  0  0
    1.7011   -1.2198    7.1741 C   0  0  0  0  0  0  0  0  0  0  0  0
    2.3725   -2.2421    7.8771 O   0  0  0  0  0  0  0  0  0  0  0  0
    3.2361   -3.0618    7.1940 C   0  0  0  0  0  0  0  0  0  0  0  0
    3.0576   -3.3384    5.8601 C   0  0  0  0  0  0  0  0  0  0  0  0
    3.9556   -4.1742    5.2045 C   0  0  0  0  0  0  0  0  0  0  0  0
    5.0216   -4.7200    5.9022 C   0  0  0  0  0  0  0  0  0  0  0  0
    5.2158   -4.4504    7.2491 C   0  0  0  0  0  0  0  0  0  0  0  0
    4.3041   -3.6195    7.8557 C   0  0  0  0  0  0  0  0  0  0  0  0
    4.7100   -3.5106    9.1733 C   0  0  0  0  0  0  0  0  0  0  0  0
    4.1559   -2.8010   10.2249 C   0  0  0  0  0  0  0  0  0  0  0  0
    4.7288   -2.8308   11.4786 C   0  0  0  0  0  0  0  0  0  0  0  0
    5.8684   -3.5836   11.6651 C   0  0  0  0  0  0  0  0  0  0  0  0
    6.4216   -4.2904   10.6206 C   0  0  0  0  0  0  0  0  0  0  0  0
    5.8522   -4.2635    9.3657 C   0  0  0  0  0  0  0  0  0  0  0  0
    6.1194   -4.8152    8.1652 N   0  0  0  0  0  0  0  0  0  0  0  0
   -0.5284   -0.4000    6.9412 O   0  0  0  0  0  0  0  0  0  0  0  0
  1  2  1  0
  2  3  1  0
  2  4  1  0
  4  5  1  0
  5  6  1  0
  6  7  1  0
  7  8  1  0
  8  9  1  0
  9 10  2  0
 10 11  1  0
 11 12  2  0
 12 13  1  0
 13 14  2  0
 14 15  1  0
 15 16  2  0
 16 17  1  0
 17 18  2  0
 18 19  1  0
 19 20  2  0
 20 21  1  0
  6 22  1  0
 14  9  1  0
 21 13  1  0
 20 15  1  0
M  END
$$$$
