
     RDKit          3D

 22 24  0  0  0  0  0  0  0  0999 V2000
   -0.0888    2.2000   11.3437 C   0  0  0  0  0  0  0  0  0  0  0  0
    0.6772    0.8716   11.3634 C   0  0  0  0  0  0  0  0  0  0  0  0
    2.1537    1.1562   11.6697 C   0  0  0  0  0  0  0  0  0  0  0  0
    0.6043    0.2920   10.0595 N   0  0  0  0  0  0  0  0  0  0  0  0
    0.4406   -1.1100   10.0910 C   0  0  0  0  0  0  0  0  0  0  0  0
    0.1893   -1.8030    8.7860 C   0  0  0  0  0  0  0  0  0  0  0  0
    1.3654   -1.4587    7.8743 C   0  0  0  0  0  0  0  0  0  0  0  0
    2.4405   -2.2563    8.3191 O   0  0  0  0  0  0  0  0  0  0  0  0
    3.2416   -2.8706    7.3890 C   0  0  0  0  0  0  0  0  0  0  0  0
    2.9458   -2.8276    6.0480 C   0  0  0  0  0  0  0  0  0  0  0  0
    3.7837   -3.4631    5.1377 C   0  0  0  0  0  0  0  0  0  0  0  0
    4.9089   -4.1334    5.5913 C   0  0  0  0  0  0  0  0  0  0  0  0
    5.2216   -4.1860    6.9418 C   0  0  0  0  0  0  0  0  0  0  0  0
    4.3657   -3.5439    7.8047 C   0  0  0  0  0  0  0  0  0  0  0  0
    4.8870   -3.7407    9.0705 C   0  0  0  0  0  0  0  0  0  0  0  0
    4.4271   -3.3134   10.3043 C   0  0  0  0  0  0  0  0  0  0  0  0
    5.1095   -3.6258   11.4609 C   0  0  0  0  0  0  0  0  0  0  0  0
    6.2628   -4.3744   11.3643 C   0  0  0  0  0  0  0  0  0  0  0  0
    6.7225   -4.8006   10.1381 C   0  0  0  0  0  0  0  0  0  0  0  0
    6.0436   -4.4907    8.9793 C   0  0  0  0  0  0  0  0  0  0  0  0
    6.2041   -4.7361    7.6636 N   0  0  0  0  0  0  0  0  0  0  0  0
   -1.0012   -1.5420    8.1730 O   0  0  0  0  0  0  0  0  0  0  0  0
  1  2  1  0
  2  3  1  0
  2  4  1  0
  4  5  1  0
  5  6  1  0
  6  7  1  0
  7  8  1  0
  8  9  1  0
  9 10  2  0
 10 11  1  0
 11 12  2  0
 12 13  1  0
 13 14  2  0
 14 15  1  0
 15 16  2  0
 16 17  1  0
 17 18  2  0
 18 19  1  0
 19 20  2  0
 20 21  1  0
  6 22  1  0
 14  9  1  0
 21 13  1  0
 20 15  1  0
M  END
$$$$
