
     RDKit          3D

 22 24  0  0  0  0  0  0  0  0999 V2000
   -2.0609   -2.2356   11.3367 C   0  0  0  0  0  0  0  0  0  0  0  0
   -1.1270   -1.0454   11.0862 C   0  0  0  0  0  0  0  0  0  0  0  0
   -1.6404    0.1625   11.8815 C   0  0  0  0  0  0  0  0  0  0  0  0
   -1.1859   -0.7128    9.6979 N   0  0  0  0  0  0  0  0  0  0  0  0
   -0.2267   -1.4047    8.9270 C   0  0  0  0  0  0  0  0  0  0  0  0
    0.8501   -0.5907    8.2758 C   0  0  0  0  0  0  0  0  0  0  0  0
    2.0855   -0.7073    9.1663 C   0  0  0  0  0  0  0  0  0  0  0  0
    2.8993   -1.6900    8.5646 O   0  0  0  0  0  0  0  0  0  0  0  0
    3.9907   -2.1608    9.2513 C   0  0  0  0  0  0  0  0  0  0  0  0
    4.3109   -1.6863   10.5003 C   0  0  0  0  0  0  0  0  0  0  0  0
    5.4255   -2.1898   11.1628 C   0  0  0  0  0  0  0  0  0  0  0  0
    6.2024   -3.1651   10.5575 C   0  0  0  0  0  0  0  0  0  0  0  0
    5.8924   -3.6547    9.2971 C   0  0  0  0  0  0  0  0  0  0  0  0
    4.7825   -3.1285    8.6801 C   0  0  0  0  0  0  0  0  0  0  0  0
    4.6904   -3.7684    7.4576 C   0  0  0  0  0  0  0  0  0  0  0  0
    3.7650   -3.6227    6.4384 C   0  0  0  0  0  0  0  0  0  0  0  0
    3.8594   -4.3710    5.2843 C   0  0  0  0  0  0  0  0  0  0  0  0
    4.8971   -5.2704    5.1647 C   0  0  0  0  0  0  0  0  0  0  0  0
    5.8190   -5.4173    6.1770 C   0  0  0  0  0  0  0  0  0  0  0  0
    5.7285   -4.6714    7.3325 C   0  0  0  0  0  0  0  0  0  0  0  0
    6.4312   -4.5643    8.4778 N   0  0  0  0  0  0  0  0  0  0  0  0
    0.5558    0.7149    8.0113 O   0  0  0  0  0  0  0  0  0  0  0  0
  1  2  1  0
  2  3  1  0
  2  4  1  0
  4  5  1  0
  5  6  1  0
  6  7  1  0
  7  8  1  0
  8  9  1  0
  9 10  2  0
 10 11  1  0
 11 12  2  0
 12 13  1  0
 13 14  2  0
 14 15  1  0
 15 16  2  0
 16 17  1  0
 17 18  2  0
 18 19  1  0
 19 20  2  0
 20 21  1  0
  6 22  1  0
 14  9  1  0
 21 13  1  0
 20 15  1  0
M  END
$$$$
