
     RDKit          3D

 22 24  0  0  0  0  0  0  0  0999 V2000
    4.1933   -6.1907    5.2859 C   0  0  0  0  0  0  0  0  0  0  0  0
    4.6234   -6.4418    6.7363 C   0  0  0  0  0  0  0  0  0  0  0  0
    3.7030   -7.5063    7.3483 C   0  0  0  0  0  0  0  0  0  0  0  0
    4.4440   -5.2313    7.4739 N   0  0  0  0  0  0  0  0  0  0  0  0
    5.4927   -4.3073    7.2748 C   0  0  0  0  0  0  0  0  0  0  0  0
    5.3734   -2.9748    7.9505 C   0  0  0  0  0  0  0  0  0  0  0  0
    4.0181   -2.3987    7.5450 C   0  0  0  0  0  0  0  0  0  0  0  0
    3.5702   -1.6555    8.6573 O   0  0  0  0  0  0  0  0  0  0  0  0
    2.3238   -1.0820    8.6151 C   0  0  0  0  0  0  0  0  0  0  0  0
    1.5643   -1.1013    7.4703 C   0  0  0  0  0  0  0  0  0  0  0  0
    0.3060   -0.5087    7.4693 C   0  0  0  0  0  0  0  0  0  0  0  0
   -0.1702    0.0955    8.6222 C   0  0  0  0  0  0  0  0  0  0  0  0
    0.5842    0.1234    9.7861 C   0  0  0  0  0  0  0  0  0  0  0  0
    1.8211   -0.4745    9.7411 C   0  0  0  0  0  0  0  0  0  0  0  0
    2.3648   -0.3138   11.0025 C   0  0  0  0  0  0  0  0  0  0  0  0
    3.5871   -0.7213   11.5090 C   0  0  0  0  0  0  0  0  0  0  0  0
    3.9366   -0.4536   12.8155 C   0  0  0  0  0  0  0  0  0  0  0  0
    3.0419    0.2301   13.6105 C   0  0  0  0  0  0  0  0  0  0  0  0
    1.8254    0.6366   13.1092 C   0  0  0  0  0  0  0  0  0  0  0  0
    1.4718    0.3711   11.8037 C   0  0  0  0  0  0  0  0  0  0  0  0
    0.4044    0.6141   11.0173 N   0  0  0  0  0  0  0  0  0  0  0  0
    6.3770   -2.0795    7.7212 O   0  0  0  0  0  0  0  0  0  0  0  0
  1  2  1  0
  2  3  1  0
  2  4  1  0
  4  5  1  0
  5  6  1  0
  6  7  1  0
  7  8  1  0
  8  9  1  0
  9 10  2  0
 10 11  1  0
 11 12  2  0
 12 13  1  0
 13 14  2  0
 14 15  1  0
 15 16  2  0
 16 17  1  0
 17 18  2  0
 18 19  1  0
 19 20  2  0
 20 21  1  0
  6 22  1  0
 14  9  1  0
 21 13  1  0
 20 15  1  0
M  END
$$$$
