
     RDKit          3D

 22 24  0  0  0  0  0  0  0  0999 V2000
    0.5004    1.5361   12.8370 C   0  0  0  0  0  0  0  0  0  0  0  0
    0.4812    1.4671   11.3051 C   0  0  0  0  0  0  0  0  0  0  0  0
   -0.3675    2.6274   10.7681 C   0  0  0  0  0  0  0  0  0  0  0  0
   -0.1519    0.2459   10.9185 N   0  0  0  0  0  0  0  0  0  0  0  0
    0.6320   -0.5204   10.0288 C   0  0  0  0  0  0  0  0  0  0  0  0
    0.3060   -1.9781    9.9051 C   0  0  0  0  0  0  0  0  0  0  0  0
    1.4710   -2.7415   10.5321 C   0  0  0  0  0  0  0  0  0  0  0  0
    2.5526   -2.5894    9.6394 O   0  0  0  0  0  0  0  0  0  0  0  0
    3.7858   -3.0717   10.0011 C   0  0  0  0  0  0  0  0  0  0  0  0
    4.2434   -2.9726   11.2928 C   0  0  0  0  0  0  0  0  0  0  0  0
    5.4993   -3.4741   11.6183 C   0  0  0  0  0  0  0  0  0  0  0  0
    6.2772   -4.0690   10.6374 C   0  0  0  0  0  0  0  0  0  0  0  0
    5.8296   -4.1770    9.3288 C   0  0  0  0  0  0  0  0  0  0  0  0
    4.5829   -3.6680    9.0530 C   0  0  0  0  0  0  0  0  0  0  0  0
    4.3722   -3.8934    7.7049 C   0  0  0  0  0  0  0  0  0  0  0  0
    3.2862   -3.5830    6.9044 C   0  0  0  0  0  0  0  0  0  0  0  0
    3.2817   -3.9014    5.5630 C   0  0  0  0  0  0  0  0  0  0  0  0
    4.3836   -4.5374    5.0326 C   0  0  0  0  0  0  0  0  0  0  0  0
    5.4651   -4.8474    5.8267 C   0  0  0  0  0  0  0  0  0  0  0  0
    5.4740   -4.5310    7.1682 C   0  0  0  0  0  0  0  0  0  0  0  0
    6.3324   -4.6810    8.1966 N   0  0  0  0  0  0  0  0  0  0  0  0
    0.0330   -2.4405    8.6510 O   0  0  0  0  0  0  0  0  0  0  0  0
  1  2  1  0
  2  3  1  0
  2  4  1  0
  4  5  1  0
  5  6  1  0
  6  7  1  0
  7  8  1  0
  8  9  1  0
  9 10  2  0
 10 11  1  0
 11 12  2  0
 12 13  1  0
 13 14  2  0
 14 15  1  0
 15 16  2  0
 16 17  1  0
 17 18  2  0
 18 19  1  0
 19 20  2  0
 20 21  1  0
  6 22  1  0
 14  9  1  0
 21 13  1  0
 20 15  1  0
M  END
$$$$
