
     RDKit          3D

 22 24  0  0  0  0  0  0  0  0999 V2000
   -0.0022    1.8140   13.0300 C   0  0  0  0  0  0  0  0  0  0  0  0
    0.6383    1.3185   11.7277 C   0  0  0  0  0  0  0  0  0  0  0  0
    0.6733    2.4767   10.7215 C   0  0  0  0  0  0  0  0  0  0  0  0
   -0.1902    0.2899   11.1828 N   0  0  0  0  0  0  0  0  0  0  0  0
    0.3438   -1.0030   11.3735 C   0  0  0  0  0  0  0  0  0  0  0  0
    0.1215   -2.0072   10.2833 C   0  0  0  0  0  0  0  0  0  0  0  0
    1.0100   -1.5872    9.1141 C   0  0  0  0  0  0  0  0  0  0  0  0
    2.1082   -2.4723    9.1309 O   0  0  0  0  0  0  0  0  0  0  0  0
    2.6839   -2.8399    7.9403 C   0  0  0  0  0  0  0  0  0  0  0  0
    2.1054   -2.5207    6.7357 C   0  0  0  0  0  0  0  0  0  0  0  0
    2.7211   -2.9119    5.5514 C   0  0  0  0  0  0  0  0  0  0  0  0
    3.9120   -3.6196    5.5971 C   0  0  0  0  0  0  0  0  0  0  0  0
    4.5090   -3.9495    6.8051 C   0  0  0  0  0  0  0  0  0  0  0  0
    3.8655   -3.5424    7.9495 C   0  0  0  0  0  0  0  0  0  0  0  0
    4.6466   -3.9866    9.0008 C   0  0  0  0  0  0  0  0  0  0  0  0
    4.4682   -3.8535   10.3671 C   0  0  0  0  0  0  0  0  0  0  0  0
    5.3819   -4.3806   11.2549 C   0  0  0  0  0  0  0  0  0  0  0  0
    6.4806   -5.0450   10.7536 C   0  0  0  0  0  0  0  0  0  0  0  0
    6.6605   -5.1788    9.3949 C   0  0  0  0  0  0  0  0  0  0  0  0
    5.7496   -4.6534    8.5037 C   0  0  0  0  0  0  0  0  0  0  0  0
    5.6196   -4.6032    7.1630 N   0  0  0  0  0  0  0  0  0  0  0  0
   -1.1675   -2.1967    9.8784 O   0  0  0  0  0  0  0  0  0  0  0  0
  1  2  1  0
  2  3  1  0
  2  4  1  0
  4  5  1  0
  5  6  1  0
  6  7  1  0
  7  8  1  0
  8  9  1  0
  9 10  2  0
 10 11  1  0
 11 12  2  0
 12 13  1  0
 13 14  2  0
 14 15  1  0
 15 16  2  0
 16 17  1  0
 17 18  2  0
 18 19  1  0
 19 20  2  0
 20 21  1  0
  6 22  1  0
 14  9  1  0
 21 13  1  0
 20 15  1  0
M  END
$$$$
