
     RDKit          3D

 22 24  0  0  0  0  0  0  0  0999 V2000
   -2.8984   -0.8718   10.2934 C   0  0  0  0  0  0  0  0  0  0  0  0
   -1.5615   -1.5930   10.5036 C   0  0  0  0  0  0  0  0  0  0  0  0
   -1.5487   -2.2126   11.9075 C   0  0  0  0  0  0  0  0  0  0  0  0
   -0.5138   -0.6234   10.4433 N   0  0  0  0  0  0  0  0  0  0  0  0
    0.6861   -1.1448    9.9126 C   0  0  0  0  0  0  0  0  0  0  0  0
    1.2359   -0.4902    8.6815 C   0  0  0  0  0  0  0  0  0  0  0  0
    1.5549   -1.6119    7.6951 C   0  0  0  0  0  0  0  0  0  0  0  0
    2.8103   -2.1212    8.0880 O   0  0  0  0  0  0  0  0  0  0  0  0
    3.5172   -2.9001    7.2060 C   0  0  0  0  0  0  0  0  0  0  0  0
    3.0852   -3.0949    5.9164 C   0  0  0  0  0  0  0  0  0  0  0  0
    3.8308   -3.8916    5.0539 C   0  0  0  0  0  0  0  0  0  0  0  0
    5.0022   -4.4812    5.5027 C   0  0  0  0  0  0  0  0  0  0  0  0
    5.4520   -4.2943    6.8016 C   0  0  0  0  0  0  0  0  0  0  0  0
    4.6835   -3.4995    7.6185 C   0  0  0  0  0  0  0  0  0  0  0  0
    5.3334   -3.4717    8.8389 C   0  0  0  0  0  0  0  0  0  0  0  0
    4.9987   -2.8258   10.0167 C   0  0  0  0  0  0  0  0  0  0  0  0
    5.7985   -2.9329   11.1346 C   0  0  0  0  0  0  0  0  0  0  0  0
    6.9422   -3.6983   11.0563 C   0  0  0  0  0  0  0  0  0  0  0  0
    7.2774   -4.3418    9.8858 C   0  0  0  0  0  0  0  0  0  0  0  0
    6.4808   -4.2375    8.7658 C   0  0  0  0  0  0  0  0  0  0  0  0
    6.5078   -4.7161    7.5060 N   0  0  0  0  0  0  0  0  0  0  0  0
    2.3094    0.3339    8.8533 O   0  0  0  0  0  0  0  0  0  0  0  0
  1  2  1  0
  2  3  1  0
  2  4  1  0
  4  5  1  0
  5  6  1  0
  6  7  1  0
  7  8  1  0
  8  9  1  0
  9 10  2  0
 10 11  1  0
 11 12  2  0
 12 13  1  0
 13 14  2  0
 14 15  1  0
 15 16  2  0
 16 17  1  0
 17 18  2  0
 18 19  1  0
 19 20  2  0
 20 21  1  0
  6 22  1  0
 14  9  1  0
 21 13  1  0
 20 15  1  0
M  END
$$$$
