
     RDKit          3D

 22 24  0  0  0  0  0  0  0  0999 V2000
   -2.2105    1.8137   10.5522 C   0  0  0  0  0  0  0  0  0  0  0  0
   -1.0670    1.2085   11.3755 C   0  0  0  0  0  0  0  0  0  0  0  0
   -0.2612    2.3471   12.0152 C   0  0  0  0  0  0  0  0  0  0  0  0
   -0.1985    0.5029   10.4869 N   0  0  0  0  0  0  0  0  0  0  0  0
   -0.6058   -0.8307   10.2660 C   0  0  0  0  0  0  0  0  0  0  0  0
    0.4694   -1.8681   10.1480 C   0  0  0  0  0  0  0  0  0  0  0  0
    1.2238   -1.5709    8.8536 C   0  0  0  0  0  0  0  0  0  0  0  0
    2.5214   -2.0923    9.0387 O   0  0  0  0  0  0  0  0  0  0  0  0
    3.1795   -2.6346    7.9631 C   0  0  0  0  0  0  0  0  0  0  0  0
    2.6614   -2.5580    6.6929 C   0  0  0  0  0  0  0  0  0  0  0  0
    3.3600   -3.1205    5.6297 C   0  0  0  0  0  0  0  0  0  0  0  0
    4.5717   -3.7526    5.8610 C   0  0  0  0  0  0  0  0  0  0  0  0
    5.1083   -3.8382    7.1374 C   0  0  0  0  0  0  0  0  0  0  0  0
    4.3838   -3.2684    8.1572 C   0  0  0  0  0  0  0  0  0  0  0  0
    5.1176   -3.4850    9.3092 C   0  0  0  0  0  0  0  0  0  0  0  0
    4.8542   -3.1240   10.6194 C   0  0  0  0  0  0  0  0  0  0  0  0
    5.7330   -3.4446   11.6322 C   0  0  0  0  0  0  0  0  0  0  0  0
    6.8833   -4.1340   11.3135 C   0  0  0  0  0  0  0  0  0  0  0  0
    7.1477   -4.4942   10.0110 C   0  0  0  0  0  0  0  0  0  0  0  0
    6.2721   -4.1758    8.9953 C   0  0  0  0  0  0  0  0  0  0  0  0
    6.2194   -4.3665    7.6619 N   0  0  0  0  0  0  0  0  0  0  0  0
    0.0708   -3.1719   10.1968 O   0  0  0  0  0  0  0  0  0  0  0  0
  1  2  1  0
  2  3  1  0
  2  4  1  0
  4  5  1  0
  5  6  1  0
  6  7  1  0
  7  8  1  0
  8  9  1  0
  9 10  2  0
 10 11  1  0
 11 12  2  0
 12 13  1  0
 13 14  2  0
 14 15  1  0
 15 16  2  0
 16 17  1  0
 17 18  2  0
 18 19  1  0
 19 20  2  0
 20 21  1  0
  6 22  1  0
 14  9  1  0
 21 13  1  0
 20 15  1  0
M  END
$$$$
