
     RDKit          3D

 22 24  0  0  0  0  0  0  0  0999 V2000
   -3.2654   -0.5701   10.7876 C   0  0  0  0  0  0  0  0  0  0  0  0
   -2.0937    0.3750   10.4949 C   0  0  0  0  0  0  0  0  0  0  0  0
   -2.5264    1.3820    9.4209 C   0  0  0  0  0  0  0  0  0  0  0  0
   -1.0161   -0.3974    9.9622 N   0  0  0  0  0  0  0  0  0  0  0  0
    0.1956    0.3242    9.8962 C   0  0  0  0  0  0  0  0  0  0  0  0
    1.4690   -0.4561   10.0219 C   0  0  0  0  0  0  0  0  0  0  0  0
    1.6094   -1.2736    8.7394 C   0  0  0  0  0  0  0  0  0  0  0  0
    2.9246   -1.7836    8.7529 O   0  0  0  0  0  0  0  0  0  0  0  0
    3.3580   -2.5325    7.6873 C   0  0  0  0  0  0  0  0  0  0  0  0
    2.6864   -2.5294    6.4887 C   0  0  0  0  0  0  0  0  0  0  0  0
    3.1587   -3.3025    5.4333 C   0  0  0  0  0  0  0  0  0  0  0  0
    4.3019   -4.0684    5.6000 C   0  0  0  0  0  0  0  0  0  0  0  0
    4.9914   -4.0824    6.8037 C   0  0  0  0  0  0  0  0  0  0  0  0
    4.4886   -3.3034    7.8186 C   0  0  0  0  0  0  0  0  0  0  0  0
    5.3387   -3.4882    8.8936 C   0  0  0  0  0  0  0  0  0  0  0  0
    5.3023   -2.9464   10.1670 C   0  0  0  0  0  0  0  0  0  0  0  0
    6.2630   -3.2698   11.1016 C   0  0  0  0  0  0  0  0  0  0  0  0
    7.2641   -4.1463   10.7418 C   0  0  0  0  0  0  0  0  0  0  0  0
    7.3027   -4.6866    9.4757 C   0  0  0  0  0  0  0  0  0  0  0  0
    6.3444   -4.3661    8.5383 C   0  0  0  0  0  0  0  0  0  0  0  0
    6.0883   -4.6986    7.2573 N   0  0  0  0  0  0  0  0  0  0  0  0
    1.5964   -1.2472   11.1260 O   0  0  0  0  0  0  0  0  0  0  0  0
  1  2  1  0
  2  3  1  0
  2  4  1  0
  4  5  1  0
  5  6  1  0
  6  7  1  0
  7  8  1  0
  8  9  1  0
  9 10  2  0
 10 11  1  0
 11 12  2  0
 12 13  1  0
 13 14  2  0
 14 15  1  0
 15 16  2  0
 16 17  1  0
 17 18  2  0
 18 19  1  0
 19 20  2  0
 20 21  1  0
  6 22  1  0
 14  9  1  0
 21 13  1  0
 20 15  1  0
M  END
$$$$
