
     RDKit          3D

 22 24  0  0  0  0  0  0  0  0999 V2000
   -2.6472    1.2959   11.4842 C   0  0  0  0  0  0  0  0  0  0  0  0
   -2.1517   -0.1397   11.2718 C   0  0  0  0  0  0  0  0  0  0  0  0
   -2.1268   -0.8602   12.6264 C   0  0  0  0  0  0  0  0  0  0  0  0
   -0.8110   -0.0839   10.7808 N   0  0  0  0  0  0  0  0  0  0  0  0
   -0.6028   -0.9153    9.6589 C   0  0  0  0  0  0  0  0  0  0  0  0
    0.6373   -0.6821    8.8502 C   0  0  0  0  0  0  0  0  0  0  0  0
    1.8206   -0.9041    9.7901 C   0  0  0  0  0  0  0  0  0  0  0  0
    2.7494   -1.6752    9.0603 O   0  0  0  0  0  0  0  0  0  0  0  0
    3.9157   -2.0640    9.6708 C   0  0  0  0  0  0  0  0  0  0  0  0
    4.2497   -1.6196   10.9273 C   0  0  0  0  0  0  0  0  0  0  0  0
    5.4412   -2.0375   11.5108 C   0  0  0  0  0  0  0  0  0  0  0  0
    6.2801   -2.8979   10.8202 C   0  0  0  0  0  0  0  0  0  0  0  0
    5.9573   -3.3557    9.5510 C   0  0  0  0  0  0  0  0  0  0  0  0
    4.7705   -2.9170    9.0139 C   0  0  0  0  0  0  0  0  0  0  0  0
    4.6811   -3.5037    7.7647 C   0  0  0  0  0  0  0  0  0  0  0  0
    3.6953   -3.4049    6.7978 C   0  0  0  0  0  0  0  0  0  0  0  0
    3.8056   -4.0833    5.6027 C   0  0  0  0  0  0  0  0  0  0  0  0
    4.9207   -4.8649    5.3886 C   0  0  0  0  0  0  0  0  0  0  0  0
    5.9027   -4.9649    6.3488 C   0  0  0  0  0  0  0  0  0  0  0  0
    5.7966   -4.2884    7.5450 C   0  0  0  0  0  0  0  0  0  0  0  0
    6.5422   -4.1650    8.6612 N   0  0  0  0  0  0  0  0  0  0  0  0
    0.7352    0.5193    8.2113 O   0  0  0  0  0  0  0  0  0  0  0  0
  1  2  1  0
  2  3  1  0
  2  4  1  0
  4  5  1  0
  5  6  1  0
  6  7  1  0
  7  8  1  0
  8  9  1  0
  9 10  2  0
 10 11  1  0
 11 12  2  0
 12 13  1  0
 13 14  2  0
 14 15  1  0
 15 16  2  0
 16 17  1  0
 17 18  2  0
 18 19  1  0
 19 20  2  0
 20 21  1  0
  6 22  1  0
 14  9  1  0
 21 13  1  0
 20 15  1  0
M  END
$$$$
