
     RDKit          3D

 22 24  0  0  0  0  0  0  0  0999 V2000
    0.6261   -2.8845   10.9180 C   0  0  0  0  0  0  0  0  0  0  0  0
   -0.0118   -1.5296   10.5878 C   0  0  0  0  0  0  0  0  0  0  0  0
   -1.4377   -1.5027   11.1542 C   0  0  0  0  0  0  0  0  0  0  0  0
   -0.1027   -1.4106    9.1668 N   0  0  0  0  0  0  0  0  0  0  0  0
    1.0658   -0.8719    8.5857 C   0  0  0  0  0  0  0  0  0  0  0  0
    1.0029   -0.4949    7.1366 C   0  0  0  0  0  0  0  0  0  0  0  0
    1.7403   -1.5893    6.3675 C   0  0  0  0  0  0  0  0  0  0  0  0
    2.7752   -2.0256    7.2211 O   0  0  0  0  0  0  0  0  0  0  0  0
    3.5902   -3.0500    6.8078 C   0  0  0  0  0  0  0  0  0  0  0  0
    3.4362   -3.6353    5.5744 C   0  0  0  0  0  0  0  0  0  0  0  0
    4.2831   -4.6708    5.1935 C   0  0  0  0  0  0  0  0  0  0  0  0
    5.2741   -5.1026    6.0611 C   0  0  0  0  0  0  0  0  0  0  0  0
    5.4427   -4.5220    7.3097 C   0  0  0  0  0  0  0  0  0  0  0  0
    4.5835   -3.5024    7.6436 C   0  0  0  0  0  0  0  0  0  0  0  0
    4.9504   -3.0997    8.9147 C   0  0  0  0  0  0  0  0  0  0  0  0
    4.4213   -2.1128    9.7287 C   0  0  0  0  0  0  0  0  0  0  0  0
    4.9451   -1.8722   10.9811 C   0  0  0  0  0  0  0  0  0  0  0  0
    6.0099   -2.6362   11.4084 C   0  0  0  0  0  0  0  0  0  0  0  0
    6.5381   -3.6185   10.6006 C   0  0  0  0  0  0  0  0  0  0  0  0
    6.0176   -3.8625    9.3479 C   0  0  0  0  0  0  0  0  0  0  0  0
    6.2795   -4.7130    8.3354 N   0  0  0  0  0  0  0  0  0  0  0  0
    1.4731    0.7419    6.8043 O   0  0  0  0  0  0  0  0  0  0  0  0
  1  2  1  0
  2  3  1  0
  2  4  1  0
  4  5  1  0
  5  6  1  0
  6  7  1  0
  7  8  1  0
  8  9  1  0
  9 10  2  0
 10 11  1  0
 11 12  2  0
 12 13  1  0
 13 14  2  0
 14 15  1  0
 15 16  2  0
 16 17  1  0
 17 18  2  0
 18 19  1  0
 19 20  2  0
 20 21  1  0
  6 22  1  0
 14  9  1  0
 21 13  1  0
 20 15  1  0
M  END
$$$$
