
     RDKit          3D

 22 24  0  0  0  0  0  0  0  0999 V2000
   -2.9856    1.1447   10.7524 C   0  0  0  0  0  0  0  0  0  0  0  0
   -2.0750    0.1353   11.4621 C   0  0  0  0  0  0  0  0  0  0  0  0
   -1.6729    0.7068   12.8283 C   0  0  0  0  0  0  0  0  0  0  0  0
   -0.8859   -0.0202   10.6854 N   0  0  0  0  0  0  0  0  0  0  0  0
   -1.1247   -0.6247    9.4320 C   0  0  0  0  0  0  0  0  0  0  0  0
    0.0661   -1.1217    8.6695 C   0  0  0  0  0  0  0  0  0  0  0  0
    1.0554   -1.6561    9.7033 C   0  0  0  0  0  0  0  0  0  0  0  0
    2.1230   -2.2053    8.9628 O   0  0  0  0  0  0  0  0  0  0  0  0
    3.2861   -2.5311    9.6151 C   0  0  0  0  0  0  0  0  0  0  0  0
    3.5403   -2.0890   10.8908 C   0  0  0  0  0  0  0  0  0  0  0  0
    4.7313   -2.4418   11.5168 C   0  0  0  0  0  0  0  0  0  0  0  0
    5.6501   -3.2356   10.8485 C   0  0  0  0  0  0  0  0  0  0  0  0
    5.4084   -3.6902    9.5603 C   0  0  0  0  0  0  0  0  0  0  0  0
    4.2189   -3.3172    8.9812 C   0  0  0  0  0  0  0  0  0  0  0  0
    4.2172   -3.8861    7.7207 C   0  0  0  0  0  0  0  0  0  0  0  0
    3.2670   -3.8321    6.7155 C   0  0  0  0  0  0  0  0  0  0  0  0
    3.4681   -4.4810    5.5158 C   0  0  0  0  0  0  0  0  0  0  0  0
    4.6381   -5.1874    5.3362 C   0  0  0  0  0  0  0  0  0  0  0  0
    5.5849   -5.2427    6.3346 C   0  0  0  0  0  0  0  0  0  0  0  0
    5.3881   -4.5955    7.5355 C   0  0  0  0  0  0  0  0  0  0  0  0
    6.0787   -4.4454    8.6833 N   0  0  0  0  0  0  0  0  0  0  0  0
    0.6675   -0.2340    7.8260 O   0  0  0  0  0  0  0  0  0  0  0  0
  1  2  1  0
  2  3  1  0
  2  4  1  0
  4  5  1  0
  5  6  1  0
  6  7  1  0
  7  8  1  0
  8  9  1  0
  9 10  2  0
 10 11  1  0
 11 12  2  0
 12 13  1  0
 13 14  2  0
 14 15  1  0
 15 16  2  0
 16 17  1  0
 17 18  2  0
 18 19  1  0
 19 20  2  0
 20 21  1  0
  6 22  1  0
 14  9  1  0
 21 13  1  0
 20 15  1  0
M  END
$$$$
