
     RDKit          3D

 22 24  0  0  0  0  0  0  0  0999 V2000
   -0.2450    0.2382   12.4439 C   0  0  0  0  0  0  0  0  0  0  0  0
    0.1388    0.7694   11.0575 C   0  0  0  0  0  0  0  0  0  0  0  0
   -0.5226    2.1388   10.8517 C   0  0  0  0  0  0  0  0  0  0  0  0
   -0.3870   -0.1230   10.0733 N   0  0  0  0  0  0  0  0  0  0  0  0
    0.6163   -0.8696    9.4181 C   0  0  0  0  0  0  0  0  0  0  0  0
    0.2987   -1.3996    8.0527 C   0  0  0  0  0  0  0  0  0  0  0  0
    1.5363   -1.1577    7.1909 C   0  0  0  0  0  0  0  0  0  0  0  0
    2.5897   -1.8409    7.8340 O   0  0  0  0  0  0  0  0  0  0  0  0
    3.3589   -2.7134    7.1051 C   0  0  0  0  0  0  0  0  0  0  0  0
    3.1115   -2.9471    5.7740 C   0  0  0  0  0  0  0  0  0  0  0  0
    3.9146   -3.8390    5.0710 C   0  0  0  0  0  0  0  0  0  0  0  0
    4.9566   -4.4835    5.7191 C   0  0  0  0  0  0  0  0  0  0  0  0
    5.2194   -4.2585    7.0625 C   0  0  0  0  0  0  0  0  0  0  0  0
    4.4006   -3.3693    7.7170 C   0  0  0  0  0  0  0  0  0  0  0  0
    4.8602   -3.3209    9.0204 C   0  0  0  0  0  0  0  0  0  0  0  0
    4.4034   -2.5907   10.1042 C   0  0  0  0  0  0  0  0  0  0  0  0
    5.0158   -2.6927   11.3351 C   0  0  0  0  0  0  0  0  0  0  0  0
    6.0960   -3.5388   11.4661 C   0  0  0  0  0  0  0  0  0  0  0  0
    6.5525   -4.2663   10.3896 C   0  0  0  0  0  0  0  0  0  0  0  0
    5.9433   -4.1675    9.1572 C   0  0  0  0  0  0  0  0  0  0  0  0
    6.1220   -4.7141    7.9381 N   0  0  0  0  0  0  0  0  0  0  0  0
   -0.8233   -0.9095    7.4509 O   0  0  0  0  0  0  0  0  0  0  0  0
  1  2  1  0
  2  3  1  0
  2  4  1  0
  4  5  1  0
  5  6  1  0
  6  7  1  0
  7  8  1  0
  8  9  1  0
  9 10  2  0
 10 11  1  0
 11 12  2  0
 12 13  1  0
 13 14  2  0
 14 15  1  0
 15 16  2  0
 16 17  1  0
 17 18  2  0
 18 19  1  0
 19 20  2  0
 20 21  1  0
  6 22  1  0
 14  9  1  0
 21 13  1  0
 20 15  1  0
M  END
$$$$
