
     RDKit          3D

 22 24  0  0  0  0  0  0  0  0999 V2000
   -3.5010   -0.1245    9.4384 C   0  0  0  0  0  0  0  0  0  0  0  0
   -2.1408   -0.4168   10.0836 C   0  0  0  0  0  0  0  0  0  0  0  0
   -2.1652    0.0782   11.5359 C   0  0  0  0  0  0  0  0  0  0  0  0
   -1.1425    0.3283    9.3837 N   0  0  0  0  0  0  0  0  0  0  0  0
   -0.4213   -0.4562    8.4576 C   0  0  0  0  0  0  0  0  0  0  0  0
    0.9141   -0.9799    8.8921 C   0  0  0  0  0  0  0  0  0  0  0  0
    1.4345   -1.8514    7.7507 C   0  0  0  0  0  0  0  0  0  0  0  0
    2.7439   -2.2239    8.1203 O   0  0  0  0  0  0  0  0  0  0  0  0
    3.4481   -3.0746    7.3050 C   0  0  0  0  0  0  0  0  0  0  0  0
    3.0159   -3.3717    6.0351 C   0  0  0  0  0  0  0  0  0  0  0  0
    3.7588   -4.2387    5.2407 C   0  0  0  0  0  0  0  0  0  0  0  0
    4.9275   -4.7947    5.7368 C   0  0  0  0  0  0  0  0  0  0  0  0
    5.3774   -4.5047    7.0167 C   0  0  0  0  0  0  0  0  0  0  0  0
    4.6118   -3.6432    7.7657 C   0  0  0  0  0  0  0  0  0  0  0  0
    5.2611   -3.5190    8.9804 C   0  0  0  0  0  0  0  0  0  0  0  0
    4.9285   -2.7783   10.1016 C   0  0  0  0  0  0  0  0  0  0  0  0
    5.7273   -2.7975   11.2252 C   0  0  0  0  0  0  0  0  0  0  0  0
    6.8679   -3.5714   11.2101 C   0  0  0  0  0  0  0  0  0  0  0  0
    7.2011   -4.3091   10.0960 C   0  0  0  0  0  0  0  0  0  0  0  0
    6.4055   -4.2929    8.9707 C   0  0  0  0  0  0  0  0  0  0  0  0
    6.4311   -4.8723    7.7538 N   0  0  0  0  0  0  0  0  0  0  0  0
    0.9525   -1.6503   10.0797 O   0  0  0  0  0  0  0  0  0  0  0  0
  1  2  1  0
  2  3  1  0
  2  4  1  0
  4  5  1  0
  5  6  1  0
  6  7  1  0
  7  8  1  0
  8  9  1  0
  9 10  2  0
 10 11  1  0
 11 12  2  0
 12 13  1  0
 13 14  2  0
 14 15  1  0
 15 16  2  0
 16 17  1  0
 17 18  2  0
 18 19  1  0
 19 20  2  0
 20 21  1  0
  6 22  1  0
 14  9  1  0
 21 13  1  0
 20 15  1  0
M  END
$$$$
