
     RDKit          3D

 22 24  0  0  0  0  0  0  0  0999 V2000
    0.5709   -0.0944    6.9198 C   0  0  0  0  0  0  0  0  0  0  0  0
   -0.3218    0.1407    8.1443 C   0  0  0  0  0  0  0  0  0  0  0  0
   -0.7548    1.6128    8.1658 C   0  0  0  0  0  0  0  0  0  0  0  0
    0.4535   -0.1048    9.3191 N   0  0  0  0  0  0  0  0  0  0  0  0
    0.6854   -1.4789    9.5458 C   0  0  0  0  0  0  0  0  0  0  0  0
    0.6045   -1.9663   10.9607 C   0  0  0  0  0  0  0  0  0  0  0  0
    2.0421   -2.1224   11.4525 C   0  0  0  0  0  0  0  0  0  0  0  0
    2.7801   -2.5754   10.3389 O   0  0  0  0  0  0  0  0  0  0  0  0
    4.0955   -2.9278   10.5121 C   0  0  0  0  0  0  0  0  0  0  0  0
    4.7507   -2.6919   11.6965 C   0  0  0  0  0  0  0  0  0  0  0  0
    6.0840   -3.0644   11.8313 C   0  0  0  0  0  0  0  0  0  0  0  0
    6.7392   -3.6698   10.7705 C   0  0  0  0  0  0  0  0  0  0  0  0
    6.0918   -3.9149    9.5682 C   0  0  0  0  0  0  0  0  0  0  0  0
    4.7751   -3.5304    9.4802 C   0  0  0  0  0  0  0  0  0  0  0  0
    4.3645   -3.8764    8.2058 C   0  0  0  0  0  0  0  0  0  0  0  0
    3.1366   -3.7172    7.5867 C   0  0  0  0  0  0  0  0  0  0  0  0
    2.9382   -4.1386    6.2891 C   0  0  0  0  0  0  0  0  0  0  0  0
    3.9902   -4.7237    5.6177 C   0  0  0  0  0  0  0  0  0  0  0  0
    5.2127   -4.8833    6.2312 C   0  0  0  0  0  0  0  0  0  0  0  0
    5.4156   -4.4636    7.5283 C   0  0  0  0  0  0  0  0  0  0  0  0
    6.4434   -4.4638    8.4004 N   0  0  0  0  0  0  0  0  0  0  0  0
   -0.1156   -3.1049   11.1763 O   0  0  0  0  0  0  0  0  0  0  0  0
  1  2  1  0
  2  3  1  0
  2  4  1  0
  4  5  1  0
  5  6  1  0
  6  7  1  0
  7  8  1  0
  8  9  1  0
  9 10  2  0
 10 11  1  0
 11 12  2  0
 12 13  1  0
 13 14  2  0
 14 15  1  0
 15 16  2  0
 16 17  1  0
 17 18  2  0
 18 19  1  0
 19 20  2  0
 20 21  1  0
  6 22  1  0
 14  9  1  0
 21 13  1  0
 20 15  1  0
M  END
$$$$
