
     RDKit          3D

 22 24  0  0  0  0  0  0  0  0999 V2000
    0.5036   -1.0229   12.6458 C   0  0  0  0  0  0  0  0  0  0  0  0
    1.0497   -0.3969   11.3567 C   0  0  0  0  0  0  0  0  0  0  0  0
    0.9787    1.1310   11.4799 C   0  0  0  0  0  0  0  0  0  0  0  0
    0.2037   -0.7887   10.2739 N   0  0  0  0  0  0  0  0  0  0  0  0
    0.6825   -0.3538    9.0190 C   0  0  0  0  0  0  0  0  0  0  0  0
    0.3185   -1.1770    7.8206 C   0  0  0  0  0  0  0  0  0  0  0  0
    1.6105   -1.4069    7.0391 C   0  0  0  0  0  0  0  0  0  0  0  0
    2.3417   -2.3586    7.7804 O   0  0  0  0  0  0  0  0  0  0  0  0
    3.2696   -3.1355    7.1326 C   0  0  0  0  0  0  0  0  0  0  0  0
    3.1697   -3.3998    5.7880 C   0  0  0  0  0  0  0  0  0  0  0  0
    4.1311   -4.1920    5.1692 C   0  0  0  0  0  0  0  0  0  0  0  0
    5.1805   -4.7071    5.9139 C   0  0  0  0  0  0  0  0  0  0  0  0
    5.2956   -4.4494    7.2722 C   0  0  0  0  0  0  0  0  0  0  0  0
    4.3232   -3.6620    7.8413 C   0  0  0  0  0  0  0  0  0  0  0  0
    4.6573   -3.5565    9.1792 C   0  0  0  0  0  0  0  0  0  0  0  0
    4.0238   -2.8832   10.2096 C   0  0  0  0  0  0  0  0  0  0  0  0
    4.5331   -2.9090   11.4905 C   0  0  0  0  0  0  0  0  0  0  0  0
    5.6897   -3.6210   11.7260 C   0  0  0  0  0  0  0  0  0  0  0  0
    6.3218   -4.2917   10.7027 C   0  0  0  0  0  0  0  0  0  0  0  0
    5.8162   -4.2686    9.4207 C   0  0  0  0  0  0  0  0  0  0  0  0
    6.1649   -4.7929    8.2288 N   0  0  0  0  0  0  0  0  0  0  0  0
   -0.6636   -0.6825    7.0129 O   0  0  0  0  0  0  0  0  0  0  0  0
  1  2  1  0
  2  3  1  0
  2  4  1  0
  4  5  1  0
  5  6  1  0
  6  7  1  0
  7  8  1  0
  8  9  1  0
  9 10  2  0
 10 11  1  0
 11 12  2  0
 12 13  1  0
 13 14  2  0
 14 15  1  0
 15 16  2  0
 16 17  1  0
 17 18  2  0
 18 19  1  0
 19 20  2  0
 20 21  1  0
  6 22  1  0
 14  9  1  0
 21 13  1  0
 20 15  1  0
M  END
$$$$
