
     RDKit          3D

 22 24  0  0  0  0  0  0  0  0999 V2000
   -1.6219    0.9738   11.0964 C   0  0  0  0  0  0  0  0  0  0  0  0
   -1.2575   -0.4891   10.8154 C   0  0  0  0  0  0  0  0  0  0  0  0
   -0.8503   -1.1598   12.1342 C   0  0  0  0  0  0  0  0  0  0  0  0
   -0.1244   -0.5104    9.9452 N   0  0  0  0  0  0  0  0  0  0  0  0
   -0.4750   -0.3708    8.5848 C   0  0  0  0  0  0  0  0  0  0  0  0
    0.6363   -0.4111    7.5800 C   0  0  0  0  0  0  0  0  0  0  0  0
    1.1412   -1.8522    7.5439 C   0  0  0  0  0  0  0  0  0  0  0  0
    2.5379   -1.7728    7.7251 O   0  0  0  0  0  0  0  0  0  0  0  0
    3.3474   -2.6460    7.0420 C   0  0  0  0  0  0  0  0  0  0  0  0
    3.0931   -2.9863    5.7354 C   0  0  0  0  0  0  0  0  0  0  0  0
    3.9381   -3.8748    5.0788 C   0  0  0  0  0  0  0  0  0  0  0  0
    5.0284   -4.4085    5.7479 C   0  0  0  0  0  0  0  0  0  0  0  0
    5.2989   -4.0749    7.0671 C   0  0  0  0  0  0  0  0  0  0  0  0
    4.4375   -3.1934    7.6758 C   0  0  0  0  0  0  0  0  0  0  0  0
    4.9146   -3.0266    8.9631 C   0  0  0  0  0  0  0  0  0  0  0  0
    4.4313   -2.2517   10.0034 C   0  0  0  0  0  0  0  0  0  0  0  0
    5.0690   -2.2304   11.2256 C   0  0  0  0  0  0  0  0  0  0  0  0
    6.2013   -2.9986   11.3920 C   0  0  0  0  0  0  0  0  0  0  0  0
    6.6842   -3.7703   10.3587 C   0  0  0  0  0  0  0  0  0  0  0  0
    6.0499   -3.7946    9.1352 C   0  0  0  0  0  0  0  0  0  0  0  0
    6.2421   -4.4130    7.9530 N   0  0  0  0  0  0  0  0  0  0  0  0
    1.6644    0.4658    7.7681 O   0  0  0  0  0  0  0  0  0  0  0  0
  1  2  1  0
  2  3  1  0
  2  4  1  0
  4  5  1  0
  5  6  1  0
  6  7  1  0
  7  8  1  0
  8  9  1  0
  9 10  2  0
 10 11  1  0
 11 12  2  0
 12 13  1  0
 13 14  2  0
 14 15  1  0
 15 16  2  0
 16 17  1  0
 17 18  2  0
 18 19  1  0
 19 20  2  0
 20 21  1  0
  6 22  1  0
 14  9  1  0
 21 13  1  0
 20 15  1  0
M  END
$$$$
