
     RDKit          3D

 22 24  0  0  0  0  0  0  0  0999 V2000
    1.0706   -1.0049   12.0645 C   0  0  0  0  0  0  0  0  0  0  0  0
    0.4276   -0.3227   10.8509 C   0  0  0  0  0  0  0  0  0  0  0  0
   -1.0569   -0.0756   11.1509 C   0  0  0  0  0  0  0  0  0  0  0  0
    0.5067   -1.2167    9.7391 N   0  0  0  0  0  0  0  0  0  0  0  0
    1.1741   -0.6540    8.6294 C   0  0  0  0  0  0  0  0  0  0  0  0
    0.6101   -0.9387    7.2703 C   0  0  0  0  0  0  0  0  0  0  0  0
    1.7477   -1.5297    6.4398 C   0  0  0  0  0  0  0  0  0  0  0  0
    2.5758   -2.2116    7.3559 O   0  0  0  0  0  0  0  0  0  0  0  0
    3.5037   -3.1027    6.8772 C   0  0  0  0  0  0  0  0  0  0  0  0
    3.4461   -3.5742    5.5880 C   0  0  0  0  0  0  0  0  0  0  0  0
    4.4061   -4.4763    5.1416 C   0  0  0  0  0  0  0  0  0  0  0  0
    5.4115   -4.8913    6.0008 C   0  0  0  0  0  0  0  0  0  0  0  0
    5.4836   -4.4246    7.3053 C   0  0  0  0  0  0  0  0  0  0  0  0
    4.5144   -3.5346    7.7028 C   0  0  0  0  0  0  0  0  0  0  0  0
    4.8015   -3.2265    9.0201 C   0  0  0  0  0  0  0  0  0  0  0  0
    4.1503   -2.3839    9.9047 C   0  0  0  0  0  0  0  0  0  0  0  0
    4.6107   -2.2185   11.1937 C   0  0  0  0  0  0  0  0  0  0  0  0
    5.7363   -2.9109   11.5858 C   0  0  0  0  0  0  0  0  0  0  0  0
    6.3859   -3.7496   10.7077 C   0  0  0  0  0  0  0  0  0  0  0  0
    5.9292   -3.9180    9.4182 C   0  0  0  0  0  0  0  0  0  0  0  0
    6.3063   -4.6324    8.3391 N   0  0  0  0  0  0  0  0  0  0  0  0
    0.0184    0.1054    6.6215 O   0  0  0  0  0  0  0  0  0  0  0  0
  1  2  1  0
  2  3  1  0
  2  4  1  0
  4  5  1  0
  5  6  1  0
  6  7  1  0
  7  8  1  0
  8  9  1  0
  9 10  2  0
 10 11  1  0
 11 12  2  0
 12 13  1  0
 13 14  2  0
 14 15  1  0
 15 16  2  0
 16 17  1  0
 17 18  2  0
 18 19  1  0
 19 20  2  0
 20 21  1  0
  6 22  1  0
 14  9  1  0
 21 13  1  0
 20 15  1  0
M  END
$$$$
