
     RDKit          3D

 22 24  0  0  0  0  0  0  0  0999 V2000
   -0.1512    0.7682   12.2752 C   0  0  0  0  0  0  0  0  0  0  0  0
    1.1287    0.7963   11.4309 C   0  0  0  0  0  0  0  0  0  0  0  0
    1.7556    2.1935   11.5288 C   0  0  0  0  0  0  0  0  0  0  0  0
    0.7713    0.5714   10.0659 N   0  0  0  0  0  0  0  0  0  0  0  0
    0.6388   -0.7988    9.7523 C   0  0  0  0  0  0  0  0  0  0  0  0
    0.3350   -1.1525    8.3279 C   0  0  0  0  0  0  0  0  0  0  0  0
    1.6743   -1.2062    7.5955 C   0  0  0  0  0  0  0  0  0  0  0  0
    2.3760   -2.2917    8.1604 O   0  0  0  0  0  0  0  0  0  0  0  0
    3.3030   -2.9544    7.3951 C   0  0  0  0  0  0  0  0  0  0  0  0
    3.1799   -3.0336    6.0290 C   0  0  0  0  0  0  0  0  0  0  0  0
    4.1413   -3.7147    5.2898 C   0  0  0  0  0  0  0  0  0  0  0  0
    5.2142   -4.3068    5.9374 C   0  0  0  0  0  0  0  0  0  0  0  0
    5.3530   -4.2358    7.3159 C   0  0  0  0  0  0  0  0  0  0  0  0
    4.3797   -3.5528    8.0055 C   0  0  0  0  0  0  0  0  0  0  0  0
    4.7394   -3.6255    9.3388 C   0  0  0  0  0  0  0  0  0  0  0  0
    4.1163   -3.1122   10.4634 C   0  0  0  0  0  0  0  0  0  0  0  0
    4.6522   -3.3038   11.7191 C   0  0  0  0  0  0  0  0  0  0  0  0
    5.8250   -4.0190   11.8334 C   0  0  0  0  0  0  0  0  0  0  0  0
    6.4469   -4.5307   10.7163 C   0  0  0  0  0  0  0  0  0  0  0  0
    5.9147   -4.3416    9.4590 C   0  0  0  0  0  0  0  0  0  0  0  0
    6.2473   -4.6906    8.2002 N   0  0  0  0  0  0  0  0  0  0  0  0
   -0.5521   -0.3493    7.6729 O   0  0  0  0  0  0  0  0  0  0  0  0
  1  2  1  0
  2  3  1  0
  2  4  1  0
  4  5  1  0
  5  6  1  0
  6  7  1  0
  7  8  1  0
  8  9  1  0
  9 10  2  0
 10 11  1  0
 11 12  2  0
 12 13  1  0
 13 14  2  0
 14 15  1  0
 15 16  2  0
 16 17  1  0
 17 18  2  0
 18 19  1  0
 19 20  2  0
 20 21  1  0
  6 22  1  0
 14  9  1  0
 21 13  1  0
 20 15  1  0
M  END
$$$$
