
     RDKit          3D

 22 24  0  0  0  0  0  0  0  0999 V2000
    0.1204    1.2129   11.2697 C   0  0  0  0  0  0  0  0  0  0  0  0
    0.9533   -0.0735   11.2144 C   0  0  0  0  0  0  0  0  0  0  0  0
    2.1554    0.0743   12.1567 C   0  0  0  0  0  0  0  0  0  0  0  0
    1.4550   -0.2268    9.8853 N   0  0  0  0  0  0  0  0  0  0  0  0
    0.8232   -1.2726    9.1779 C   0  0  0  0  0  0  0  0  0  0  0  0
    0.3429   -0.9727    7.7902 C   0  0  0  0  0  0  0  0  0  0  0  0
    1.1995   -1.8082    6.8408 C   0  0  0  0  0  0  0  0  0  0  0  0
    2.3426   -2.1764    7.5809 O   0  0  0  0  0  0  0  0  0  0  0  0
    3.3178   -2.9242    6.9693 C   0  0  0  0  0  0  0  0  0  0  0  0
    3.2302   -3.2688    5.6422 C   0  0  0  0  0  0  0  0  0  0  0  0
    4.2401   -4.0278    5.0602 C   0  0  0  0  0  0  0  0  0  0  0  0
    5.3250   -4.4292    5.8236 C   0  0  0  0  0  0  0  0  0  0  0  0
    5.4284   -4.0895    7.1647 C   0  0  0  0  0  0  0  0  0  0  0  0
    4.4077   -3.3387    7.6974 C   0  0  0  0  0  0  0  0  0  0  0  0
    4.7397   -3.1370    9.0247 C   0  0  0  0  0  0  0  0  0  0  0  0
    4.0667   -2.4514   10.0216 C   0  0  0  0  0  0  0  0  0  0  0  0
    4.5822   -2.3720   11.2978 C   0  0  0  0  0  0  0  0  0  0  0  0
    5.7851   -2.9907   11.5628 C   0  0  0  0  0  0  0  0  0  0  0  0
    6.4566   -3.6732   10.5730 C   0  0  0  0  0  0  0  0  0  0  0  0
    5.9450   -3.7552    9.2957 C   0  0  0  0  0  0  0  0  0  0  0  0
    6.3230   -4.3203    8.1318 N   0  0  0  0  0  0  0  0  0  0  0  0
    0.3308    0.3392    7.4161 O   0  0  0  0  0  0  0  0  0  0  0  0
  1  2  1  0
  2  3  1  0
  2  4  1  0
  4  5  1  0
  5  6  1  0
  6  7  1  0
  7  8  1  0
  8  9  1  0
  9 10  2  0
 10 11  1  0
 11 12  2  0
 12 13  1  0
 13 14  2  0
 14 15  1  0
 15 16  2  0
 16 17  1  0
 17 18  2  0
 18 19  1  0
 19 20  2  0
 20 21  1  0
  6 22  1  0
 14  9  1  0
 21 13  1  0
 20 15  1  0
M  END
$$$$
