
     RDKit          3D

 22 24  0  0  0  0  0  0  0  0999 V2000
   -2.1157   -1.5250   11.1598 C   0  0  0  0  0  0  0  0  0  0  0  0
   -0.6858   -1.0228   10.9259 C   0  0  0  0  0  0  0  0  0  0  0  0
   -0.4505    0.2219   11.7921 C   0  0  0  0  0  0  0  0  0  0  0  0
   -0.5652   -0.6326    9.5567 N   0  0  0  0  0  0  0  0  0  0  0  0
    0.7223   -0.8727    9.0295 C   0  0  0  0  0  0  0  0  0  0  0  0
    0.8711   -0.8472    7.5383 C   0  0  0  0  0  0  0  0  0  0  0  0
    1.4188   -2.2133    7.1300 C   0  0  0  0  0  0  0  0  0  0  0  0
    2.7977   -2.1763    7.4250 O   0  0  0  0  0  0  0  0  0  0  0  0
    3.6199   -3.1308    6.8798 C   0  0  0  0  0  0  0  0  0  0  0  0
    3.4064   -3.6229    5.6150 C   0  0  0  0  0  0  0  0  0  0  0  0
    4.2630   -4.5899    5.0991 C   0  0  0  0  0  0  0  0  0  0  0  0
    5.3235   -5.0478    5.8652 C   0  0  0  0  0  0  0  0  0  0  0  0
    5.5526   -4.5610    7.1438 C   0  0  0  0  0  0  0  0  0  0  0  0
    4.6813   -3.6067    7.6124 C   0  0  0  0  0  0  0  0  0  0  0  0
    5.1161   -3.2908    8.8866 C   0  0  0  0  0  0  0  0  0  0  0  0
    4.6066   -2.3935    9.8095 C   0  0  0  0  0  0  0  0  0  0  0  0
    5.2024   -2.2311   11.0422 C   0  0  0  0  0  0  0  0  0  0  0  0
    6.3195   -2.9823   11.3387 C   0  0  0  0  0  0  0  0  0  0  0  0
    6.8283   -3.8755   10.4225 C   0  0  0  0  0  0  0  0  0  0  0  0
    6.2359   -4.0412    9.1890 C   0  0  0  0  0  0  0  0  0  0  0  0
    6.4611   -4.7978    8.0964 N   0  0  0  0  0  0  0  0  0  0  0  0
    1.6258    0.1617    7.0151 O   0  0  0  0  0  0  0  0  0  0  0  0
  1  2  1  0
  2  3  1  0
  2  4  1  0
  4  5  1  0
  5  6  1  0
  6  7  1  0
  7  8  1  0
  8  9  1  0
  9 10  2  0
 10 11  1  0
 11 12  2  0
 12 13  1  0
 13 14  2  0
 14 15  1  0
 15 16  2  0
 16 17  1  0
 17 18  2  0
 18 19  1  0
 19 20  2  0
 20 21  1  0
  6 22  1  0
 14  9  1  0
 21 13  1  0
 20 15  1  0
M  END
$$$$
