
     RDKit          3D

 22 24  0  0  0  0  0  0  0  0999 V2000
   -0.5792    0.7166   12.6646 C   0  0  0  0  0  0  0  0  0  0  0  0
    0.2196    1.2428   11.4659 C   0  0  0  0  0  0  0  0  0  0  0  0
   -0.2096    2.6884   11.1813 C   0  0  0  0  0  0  0  0  0  0  0  0
   -0.1143    0.4537   10.3225 N   0  0  0  0  0  0  0  0  0  0  0  0
    0.5394   -0.7976   10.3100 C   0  0  0  0  0  0  0  0  0  0  0  0
    0.3250   -1.6741    9.1132 C   0  0  0  0  0  0  0  0  0  0  0  0
    1.4607   -1.3689    8.1386 C   0  0  0  0  0  0  0  0  0  0  0  0
    2.5205   -2.2242    8.5063 O   0  0  0  0  0  0  0  0  0  0  0  0
    3.2684   -2.8177    7.5200 C   0  0  0  0  0  0  0  0  0  0  0  0
    2.8733   -2.7872    6.2045 C   0  0  0  0  0  0  0  0  0  0  0  0
    3.6600   -3.4009    5.2354 C   0  0  0  0  0  0  0  0  0  0  0  0
    4.8345   -4.0371    5.6051 C   0  0  0  0  0  0  0  0  0  0  0  0
    5.2474   -4.0767    6.9290 C   0  0  0  0  0  0  0  0  0  0  0  0
    4.4391   -3.4571    7.8522 C   0  0  0  0  0  0  0  0  0  0  0  0
    5.0579   -3.6350    9.0761 C   0  0  0  0  0  0  0  0  0  0  0  0
    4.6780   -3.2177   10.3403 C   0  0  0  0  0  0  0  0  0  0  0  0
    5.4526   -3.5068   11.4436 C   0  0  0  0  0  0  0  0  0  0  0  0
    6.6169   -4.2221   11.2627 C   0  0  0  0  0  0  0  0  0  0  0  0
    6.9971   -4.6384   10.0063 C   0  0  0  0  0  0  0  0  0  0  0  0
    6.2258   -4.3516    8.9005 C   0  0  0  0  0  0  0  0  0  0  0  0
    6.2959   -4.5961    7.5767 N   0  0  0  0  0  0  0  0  0  0  0  0
   -0.8891   -1.5842    8.4976 O   0  0  0  0  0  0  0  0  0  0  0  0
  1  2  1  0
  2  3  1  0
  2  4  1  0
  4  5  1  0
  5  6  1  0
  6  7  1  0
  7  8  1  0
  8  9  1  0
  9 10  2  0
 10 11  1  0
 11 12  2  0
 12 13  1  0
 13 14  2  0
 14 15  1  0
 15 16  2  0
 16 17  1  0
 17 18  2  0
 18 19  1  0
 19 20  2  0
 20 21  1  0
  6 22  1  0
 14  9  1  0
 21 13  1  0
 20 15  1  0
M  END
$$$$
