
     RDKit          3D

 22 24  0  0  0  0  0  0  0  0999 V2000
    1.4422   -0.9414   12.3272 C   0  0  0  0  0  0  0  0  0  0  0  0
    1.0160   -0.0112   11.1849 C   0  0  0  0  0  0  0  0  0  0  0  0
   -0.2127    0.7917   11.6327 C   0  0  0  0  0  0  0  0  0  0  0  0
    0.6299   -0.8171   10.0699 N   0  0  0  0  0  0  0  0  0  0  0  0
    1.1318   -0.3319    8.8427 C   0  0  0  0  0  0  0  0  0  0  0  0
    0.7453   -1.0742    7.5994 C   0  0  0  0  0  0  0  0  0  0  0  0
    2.0433   -1.3994    6.8630 C   0  0  0  0  0  0  0  0  0  0  0  0
    2.7059   -2.3564    7.6600 O   0  0  0  0  0  0  0  0  0  0  0  0
    3.6475   -3.1685    7.0785 C   0  0  0  0  0  0  0  0  0  0  0  0
    3.5514   -3.5485    5.7617 C   0  0  0  0  0  0  0  0  0  0  0  0
    4.5268   -4.3726    5.2103 C   0  0  0  0  0  0  0  0  0  0  0  0
    5.5862   -4.8028    5.9937 C   0  0  0  0  0  0  0  0  0  0  0  0
    5.6977   -4.4281    7.3248 C   0  0  0  0  0  0  0  0  0  0  0  0
    4.7114   -3.6130    7.8270 C   0  0  0  0  0  0  0  0  0  0  0  0
    5.0445   -3.3876    9.1502 C   0  0  0  0  0  0  0  0  0  0  0  0
    4.3996   -2.6405   10.1209 C   0  0  0  0  0  0  0  0  0  0  0  0
    4.9104   -2.5475   11.3981 C   0  0  0  0  0  0  0  0  0  0  0  0
    6.0802   -3.2153   11.6906 C   0  0  0  0  0  0  0  0  0  0  0  0
    6.7238   -3.9591   10.7268 C   0  0  0  0  0  0  0  0  0  0  0  0
    6.2168   -4.0549    9.4487 C   0  0  0  0  0  0  0  0  0  0  0  0
    6.5740   -4.6725    8.3051 N   0  0  0  0  0  0  0  0  0  0  0  0
   -0.1490   -0.4601    6.7722 O   0  0  0  0  0  0  0  0  0  0  0  0
  1  2  1  0
  2  3  1  0
  2  4  1  0
  4  5  1  0
  5  6  1  0
  6  7  1  0
  7  8  1  0
  8  9  1  0
  9 10  2  0
 10 11  1  0
 11 12  2  0
 12 13  1  0
 13 14  2  0
 14 15  1  0
 15 16  2  0
 16 17  1  0
 17 18  2  0
 18 19  1  0
 19 20  2  0
 20 21  1  0
  6 22  1  0
 14  9  1  0
 21 13  1  0
 20 15  1  0
M  END
$$$$
