
     RDKit          3D

 22 24  0  0  0  0  0  0  0  0999 V2000
   -2.7095   -2.0286   11.1014 C   0  0  0  0  0  0  0  0  0  0  0  0
   -1.2476   -1.6578   11.3790 C   0  0  0  0  0  0  0  0  0  0  0  0
   -1.1736   -0.8995   12.7111 C   0  0  0  0  0  0  0  0  0  0  0  0
   -0.8048   -0.7743   10.3470 N   0  0  0  0  0  0  0  0  0  0  0  0
    0.2784   -1.2954    9.6064 C   0  0  0  0  0  0  0  0  0  0  0  0
    0.7821   -0.4777    8.4558 C   0  0  0  0  0  0  0  0  0  0  0  0
    1.2407   -1.4655    7.3849 C   0  0  0  0  0  0  0  0  0  0  0  0
    2.4163   -2.0591    7.8904 O   0  0  0  0  0  0  0  0  0  0  0  0
    3.1144   -2.9334    7.0951 C   0  0  0  0  0  0  0  0  0  0  0  0
    2.7172   -3.2051    5.8082 C   0  0  0  0  0  0  0  0  0  0  0  0
    3.4525   -4.0975    5.0350 C   0  0  0  0  0  0  0  0  0  0  0  0
    4.5784   -4.7041    5.5693 C   0  0  0  0  0  0  0  0  0  0  0  0
    4.9926   -4.4403    6.8668 C   0  0  0  0  0  0  0  0  0  0  0  0
    4.2361   -3.5522    7.5937 C   0  0  0  0  0  0  0  0  0  0  0  0
    4.8450   -3.4620    8.8321 C   0  0  0  0  0  0  0  0  0  0  0  0
    4.5022   -2.7147    9.9458 C   0  0  0  0  0  0  0  0  0  0  0  0
    5.2578   -2.7733   11.0976 C   0  0  0  0  0  0  0  0  0  0  0  0
    6.3654   -3.5935   11.1184 C   0  0  0  0  0  0  0  0  0  0  0  0
    6.7087   -4.3379   10.0119 C   0  0  0  0  0  0  0  0  0  0  0  0
    5.9562   -4.2824    8.8584 C   0  0  0  0  0  0  0  0  0  0  0  0
    6.0026   -4.8553    7.6391 N   0  0  0  0  0  0  0  0  0  0  0  0
    1.7574    0.4350    8.7333 O   0  0  0  0  0  0  0  0  0  0  0  0
  1  2  1  0
  2  3  1  0
  2  4  1  0
  4  5  1  0
  5  6  1  0
  6  7  1  0
  7  8  1  0
  8  9  1  0
  9 10  2  0
 10 11  1  0
 11 12  2  0
 12 13  1  0
 13 14  2  0
 14 15  1  0
 15 16  2  0
 16 17  1  0
 17 18  2  0
 18 19  1  0
 19 20  2  0
 20 21  1  0
  6 22  1  0
 14  9  1  0
 21 13  1  0
 20 15  1  0
M  END
$$$$
