
     RDKit          3D

 22 24  0  0  0  0  0  0  0  0999 V2000
    3.0382   -2.9566    3.5117 C   0  0  0  0  0  0  0  0  0  0  0  0
    2.0832   -3.3640    4.6403 C   0  0  0  0  0  0  0  0  0  0  0  0
    1.0055   -4.2929    4.0654 C   0  0  0  0  0  0  0  0  0  0  0  0
    1.4338   -2.1874    5.1255 N   0  0  0  0  0  0  0  0  0  0  0  0
    2.2875   -1.3677    5.8952 C   0  0  0  0  0  0  0  0  0  0  0  0
    1.6536   -0.5138    6.9513 C   0  0  0  0  0  0  0  0  0  0  0  0
    1.2923   -1.4443    8.1074 C   0  0  0  0  0  0  0  0  0  0  0  0
    2.4509   -1.5277    8.9077 O   0  0  0  0  0  0  0  0  0  0  0  0
    2.3557   -2.0835   10.1593 C   0  0  0  0  0  0  0  0  0  0  0  0
    1.2230   -1.9389   10.9233 C   0  0  0  0  0  0  0  0  0  0  0  0
    1.1667   -2.5180   12.1867 C   0  0  0  0  0  0  0  0  0  0  0  0
    2.2528   -3.2352   12.6632 C   0  0  0  0  0  0  0  0  0  0  0  0
    3.4036   -3.3904   11.9041 C   0  0  0  0  0  0  0  0  0  0  0  0
    3.4146   -2.8015   10.6621 C   0  0  0  0  0  0  0  0  0  0  0  0
    4.6505   -3.0952   10.1154 C   0  0  0  0  0  0  0  0  0  0  0  0
    5.1914   -2.7503    8.8886 C   0  0  0  0  0  0  0  0  0  0  0  0
    6.4624   -3.1527    8.5372 C   0  0  0  0  0  0  0  0  0  0  0  0
    7.1866   -3.9079    9.4345 C   0  0  0  0  0  0  0  0  0  0  0  0
    6.6508   -4.2524   10.6554 C   0  0  0  0  0  0  0  0  0  0  0  0
    5.3807   -3.8524   11.0109 C   0  0  0  0  0  0  0  0  0  0  0  0
    4.5780   -4.0048   12.0831 N   0  0  0  0  0  0  0  0  0  0  0  0
    0.5799    0.2365    6.5697 O   0  0  0  0  0  0  0  0  0  0  0  0
  1  2  1  0
  2  3  1  0
  2  4  1  0
  4  5  1  0
  5  6  1  0
  6  7  1  0
  7  8  1  0
  8  9  1  0
  9 10  2  0
 10 11  1  0
 11 12  2  0
 12 13  1  0
 13 14  2  0
 14 15  1  0
 15 16  2  0
 16 17  1  0
 17 18  2  0
 18 19  1  0
 19 20  2  0
 20 21  1  0
  6 22  1  0
 14  9  1  0
 21 13  1  0
 20 15  1  0
M  END
$$$$
