
     RDKit          3D

 22 24  0  0  0  0  0  0  0  0999 V2000
   -1.8934    1.4801   12.4732 C   0  0  0  0  0  0  0  0  0  0  0  0
   -0.6085    1.7604   11.6844 C   0  0  0  0  0  0  0  0  0  0  0  0
   -0.6224    3.2227   11.2192 C   0  0  0  0  0  0  0  0  0  0  0  0
   -0.6059    0.9308   10.5211 N   0  0  0  0  0  0  0  0  0  0  0  0
    0.5003    0.0547   10.4749 C   0  0  0  0  0  0  0  0  0  0  0  0
    0.3381   -1.2182    9.7004 C   0  0  0  0  0  0  0  0  0  0  0  0
    1.2203   -2.2613   10.3836 C   0  0  0  0  0  0  0  0  0  0  0  0
    2.2744   -2.5200    9.4826 O   0  0  0  0  0  0  0  0  0  0  0  0
    3.4478   -3.0439    9.9653 C   0  0  0  0  0  0  0  0  0  0  0  0
    3.7446   -3.0212   11.3066 C   0  0  0  0  0  0  0  0  0  0  0  0
    4.9447   -3.5628   11.7551 C   0  0  0  0  0  0  0  0  0  0  0  0
    5.8297   -4.1202   10.8455 C   0  0  0  0  0  0  0  0  0  0  0  0
    5.5448   -4.1510    9.4881 C   0  0  0  0  0  0  0  0  0  0  0  0
    4.3478   -3.6046    9.0905 C   0  0  0  0  0  0  0  0  0  0  0  0
    4.3014   -3.7552    7.7165 C   0  0  0  0  0  0  0  0  0  0  0  0
    3.3259   -3.3827    6.8076 C   0  0  0  0  0  0  0  0  0  0  0  0
    3.4821   -3.6303    5.4604 C   0  0  0  0  0  0  0  0  0  0  0  0
    4.6328   -4.2584    5.0345 C   0  0  0  0  0  0  0  0  0  0  0  0
    5.6047   -4.6300    5.9366 C   0  0  0  0  0  0  0  0  0  0  0  0
    5.4527   -4.3845    7.2843 C   0  0  0  0  0  0  0  0  0  0  0  0
    6.1765   -4.6044    8.4000 N   0  0  0  0  0  0  0  0  0  0  0  0
    0.5946   -1.1578    8.3618 O   0  0  0  0  0  0  0  0  0  0  0  0
  1  2  1  0
  2  3  1  0
  2  4  1  0
  4  5  1  0
  5  6  1  0
  6  7  1  0
  7  8  1  0
  8  9  1  0
  9 10  2  0
 10 11  1  0
 11 12  2  0
 12 13  1  0
 13 14  2  0
 14 15  1  0
 15 16  2  0
 16 17  1  0
 17 18  2  0
 18 19  1  0
 19 20  2  0
 20 21  1  0
  6 22  1  0
 14  9  1  0
 21 13  1  0
 20 15  1  0
M  END
$$$$
