
     RDKit          3D

 22 24  0  0  0  0  0  0  0  0999 V2000
    0.1558   -0.2606   12.1531 C   0  0  0  0  0  0  0  0  0  0  0  0
    1.5016   -0.2405   11.4181 C   0  0  0  0  0  0  0  0  0  0  0  0
    2.2620    1.0327   11.8126 C   0  0  0  0  0  0  0  0  0  0  0  0
    1.2455   -0.1802   10.0137 N   0  0  0  0  0  0  0  0  0  0  0  0
    0.6692   -1.3666    9.5100 C   0  0  0  0  0  0  0  0  0  0  0  0
    0.3909   -1.4255    8.0385 C   0  0  0  0  0  0  0  0  0  0  0  0
    1.7476   -1.4395    7.3370 C   0  0  0  0  0  0  0  0  0  0  0  0
    2.5353   -2.3703    8.0462 O   0  0  0  0  0  0  0  0  0  0  0  0
    3.4002   -3.1768    7.3492 C   0  0  0  0  0  0  0  0  0  0  0  0
    3.2482   -3.3946    6.0012 C   0  0  0  0  0  0  0  0  0  0  0  0
    4.1466   -4.2189    5.3317 C   0  0  0  0  0  0  0  0  0  0  0  0
    5.1864   -4.8125    6.0299 C   0  0  0  0  0  0  0  0  0  0  0  0
    5.3537   -4.6025    7.3910 C   0  0  0  0  0  0  0  0  0  0  0  0
    4.4427   -3.7809    8.0110 C   0  0  0  0  0  0  0  0  0  0  0  0
    4.8195   -3.7341    9.3408 C   0  0  0  0  0  0  0  0  0  0  0  0
    4.2534   -3.0586   10.4083 C   0  0  0  0  0  0  0  0  0  0  0  0
    4.7963   -3.1508   11.6723 C   0  0  0  0  0  0  0  0  0  0  0  0
    5.9179   -3.9314   11.8529 C   0  0  0  0  0  0  0  0  0  0  0  0
    6.4830   -4.6043   10.7926 C   0  0  0  0  0  0  0  0  0  0  0  0
    5.9437   -4.5151    9.5273 C   0  0  0  0  0  0  0  0  0  0  0  0
    6.2292   -5.0215    8.3112 N   0  0  0  0  0  0  0  0  0  0  0  0
   -0.4168   -0.4516    7.5282 O   0  0  0  0  0  0  0  0  0  0  0  0
  1  2  1  0
  2  3  1  0
  2  4  1  0
  4  5  1  0
  5  6  1  0
  6  7  1  0
  7  8  1  0
  8  9  1  0
  9 10  2  0
 10 11  1  0
 11 12  2  0
 12 13  1  0
 13 14  2  0
 14 15  1  0
 15 16  2  0
 16 17  1  0
 17 18  2  0
 18 19  1  0
 19 20  2  0
 20 21  1  0
  6 22  1  0
 14  9  1  0
 21 13  1  0
 20 15  1  0
M  END
$$$$
