
     RDKit          3D

 22 24  0  0  0  0  0  0  0  0999 V2000
   -0.7017   -0.0618   11.4154 C   0  0  0  0  0  0  0  0  0  0  0  0
    0.8080    0.0657   11.1780 C   0  0  0  0  0  0  0  0  0  0  0  0
    1.1680    1.5534   11.0686 C   0  0  0  0  0  0  0  0  0  0  0  0
    1.1199   -0.5533    9.9285 N   0  0  0  0  0  0  0  0  0  0  0  0
    0.0324   -0.5500    9.0283 C   0  0  0  0  0  0  0  0  0  0  0  0
    0.2130   -1.2732    7.7281 C   0  0  0  0  0  0  0  0  0  0  0  0
    1.6854   -1.1287    7.3482 C   0  0  0  0  0  0  0  0  0  0  0  0
    2.3126   -2.3120    7.7913 O   0  0  0  0  0  0  0  0  0  0  0  0
    3.1944   -2.9502    6.9550 C   0  0  0  0  0  0  0  0  0  0  0  0
    2.9584   -3.0487    5.6051 C   0  0  0  0  0  0  0  0  0  0  0  0
    3.8773   -3.7037    4.7919 C   0  0  0  0  0  0  0  0  0  0  0  0
    5.0220   -4.2507    5.3502 C   0  0  0  0  0  0  0  0  0  0  0  0
    5.2748   -4.1597    6.7112 C   0  0  0  0  0  0  0  0  0  0  0  0
    4.3398   -3.5037    7.4759 C   0  0  0  0  0  0  0  0  0  0  0  0
    4.8140   -3.5490    8.7742 C   0  0  0  0  0  0  0  0  0  0  0  0
    4.2707   -3.0455    9.9438 C   0  0  0  0  0  0  0  0  0  0  0  0
    4.9180   -3.2044   11.1507 C   0  0  0  0  0  0  0  0  0  0  0  0
    6.1212   -3.8767   11.1701 C   0  0  0  0  0  0  0  0  0  0  0  0
    6.6638   -4.3785   10.0081 C   0  0  0  0  0  0  0  0  0  0  0  0
    6.0202   -4.2220    8.7994 C   0  0  0  0  0  0  0  0  0  0  0  0
    6.2569   -4.5730    7.5196 N   0  0  0  0  0  0  0  0  0  0  0  0
   -0.5998   -0.8962    6.6992 O   0  0  0  0  0  0  0  0  0  0  0  0
  1  2  1  0
  2  3  1  0
  2  4  1  0
  4  5  1  0
  5  6  1  0
  6  7  1  0
  7  8  1  0
  8  9  1  0
  9 10  2  0
 10 11  1  0
 11 12  2  0
 12 13  1  0
 13 14  2  0
 14 15  1  0
 15 16  2  0
 16 17  1  0
 17 18  2  0
 18 19  1  0
 19 20  2  0
 20 21  1  0
  6 22  1  0
 14  9  1  0
 21 13  1  0
 20 15  1  0
M  END
$$$$
