
     RDKit          3D

 22 24  0  0  0  0  0  0  0  0999 V2000
   -1.7348   -0.0778   12.7057 C   0  0  0  0  0  0  0  0  0  0  0  0
   -1.9028    0.1728   11.2022 C   0  0  0  0  0  0  0  0  0  0  0  0
   -3.3271   -0.2232   10.7905 C   0  0  0  0  0  0  0  0  0  0  0  0
   -0.9923   -0.6762   10.5009 N   0  0  0  0  0  0  0  0  0  0  0  0
   -0.4398   -0.0613    9.3564 C   0  0  0  0  0  0  0  0  0  0  0  0
    0.5038   -0.8766    8.5250 C   0  0  0  0  0  0  0  0  0  0  0  0
    1.8633   -0.8144    9.2185 C   0  0  0  0  0  0  0  0  0  0  0  0
    2.6663   -1.7781    8.5732 O   0  0  0  0  0  0  0  0  0  0  0  0
    3.7783   -2.2573    9.2198 C   0  0  0  0  0  0  0  0  0  0  0  0
    4.0857   -1.8681   10.5011 C   0  0  0  0  0  0  0  0  0  0  0  0
    5.2220   -2.3772   11.1210 C   0  0  0  0  0  0  0  0  0  0  0  0
    6.0334   -3.2720   10.4411 C   0  0  0  0  0  0  0  0  0  0  0  0
    5.7368   -3.6749    9.1471 C   0  0  0  0  0  0  0  0  0  0  0  0
    4.6044   -3.1465    8.5744 C   0  0  0  0  0  0  0  0  0  0  0  0
    4.5315   -3.6936    7.3064 C   0  0  0  0  0  0  0  0  0  0  0  0
    3.5963   -3.5062    6.3030 C   0  0  0  0  0  0  0  0  0  0  0  0
    3.7143   -4.1592    5.0945 C   0  0  0  0  0  0  0  0  0  0  0  0
    4.7856   -5.0055    4.9042 C   0  0  0  0  0  0  0  0  0  0  0  0
    5.7172   -5.1938    5.9007 C   0  0  0  0  0  0  0  0  0  0  0  0
    5.6032   -4.5431    7.1104 C   0  0  0  0  0  0  0  0  0  0  0  0
    6.3066   -4.4971    8.2594 N   0  0  0  0  0  0  0  0  0  0  0  0
    0.6078   -0.5387    7.2073 O   0  0  0  0  0  0  0  0  0  0  0  0
  1  2  1  0
  2  3  1  0
  2  4  1  0
  4  5  1  0
  5  6  1  0
  6  7  1  0
  7  8  1  0
  8  9  1  0
  9 10  2  0
 10 11  1  0
 11 12  2  0
 12 13  1  0
 13 14  2  0
 14 15  1  0
 15 16  2  0
 16 17  1  0
 17 18  2  0
 18 19  1  0
 19 20  2  0
 20 21  1  0
  6 22  1  0
 14  9  1  0
 21 13  1  0
 20 15  1  0
M  END
$$$$
