
     RDKit          3D

 22 24  0  0  0  0  0  0  0  0999 V2000
   -0.9575   -2.8802   10.7648 C   0  0  0  0  0  0  0  0  0  0  0  0
   -1.2320   -1.4036   10.4553 C   0  0  0  0  0  0  0  0  0  0  0  0
   -2.7486   -1.1700   10.4626 C   0  0  0  0  0  0  0  0  0  0  0  0
   -0.7522   -1.1240    9.1388 N   0  0  0  0  0  0  0  0  0  0  0  0
    0.5695   -0.6276    9.1307 C   0  0  0  0  0  0  0  0  0  0  0  0
    1.1233   -0.1662    7.8167 C   0  0  0  0  0  0  0  0  0  0  0  0
    1.4788   -1.4238    7.0260 C   0  0  0  0  0  0  0  0  0  0  0  0
    2.6895   -1.8928    7.5776 O   0  0  0  0  0  0  0  0  0  0  0  0
    3.4405   -2.7931    6.8636 C   0  0  0  0  0  0  0  0  0  0  0  0
    3.1336   -3.1098    5.5624 C   0  0  0  0  0  0  0  0  0  0  0  0
    3.9202   -4.0272    4.8736 C   0  0  0  0  0  0  0  0  0  0  0  0
    5.0057   -4.6132    5.5056 C   0  0  0  0  0  0  0  0  0  0  0  0
    5.3288   -4.3040    6.8189 C   0  0  0  0  0  0  0  0  0  0  0  0
    4.5242   -3.3925    7.4602 C   0  0  0  0  0  0  0  0  0  0  0  0
    5.0455   -3.2585    8.7341 C   0  0  0  0  0  0  0  0  0  0  0  0
    4.6266   -2.4736    9.7947 C   0  0  0  0  0  0  0  0  0  0  0  0
    5.3002   -2.4912   10.9976 C   0  0  0  0  0  0  0  0  0  0  0  0
    6.4030   -3.3085   11.1238 C   0  0  0  0  0  0  0  0  0  0  0  0
    6.8218   -4.0902   10.0703 C   0  0  0  0  0  0  0  0  0  0  0  0
    6.1515   -4.0758    8.8661 C   0  0  0  0  0  0  0  0  0  0  0  0
    6.2822   -4.6905    7.6735 N   0  0  0  0  0  0  0  0  0  0  0  0
    2.1775    0.6984    7.8658 O   0  0  0  0  0  0  0  0  0  0  0  0
  1  2  1  0
  2  3  1  0
  2  4  1  0
  4  5  1  0
  5  6  1  0
  6  7  1  0
  7  8  1  0
  8  9  1  0
  9 10  2  0
 10 11  1  0
 11 12  2  0
 12 13  1  0
 13 14  2  0
 14 15  1  0
 15 16  2  0
 16 17  1  0
 17 18  2  0
 18 19  1  0
 19 20  2  0
 20 21  1  0
  6 22  1  0
 14  9  1  0
 21 13  1  0
 20 15  1  0
M  END
$$$$
