
     RDKit          3D

 22 24  0  0  0  0  0  0  0  0999 V2000
    0.6106    0.5595   12.6514 C   0  0  0  0  0  0  0  0  0  0  0  0
    0.5133    1.3581   11.3458 C   0  0  0  0  0  0  0  0  0  0  0  0
   -0.3671    2.5920   11.5848 C   0  0  0  0  0  0  0  0  0  0  0  0
   -0.1331    0.5418   10.3673 N   0  0  0  0  0  0  0  0  0  0  0  0
    0.7540    0.0660    9.3774 C   0  0  0  0  0  0  0  0  0  0  0  0
    0.3398   -1.1533    8.6107 C   0  0  0  0  0  0  0  0  0  0  0  0
    1.3774   -1.3495    7.5072 C   0  0  0  0  0  0  0  0  0  0  0  0
    2.4408   -2.0589    8.1037 O   0  0  0  0  0  0  0  0  0  0  0  0
    3.2935   -2.7764    7.3021 C   0  0  0  0  0  0  0  0  0  0  0  0
    3.0773   -2.8945    5.9505 C   0  0  0  0  0  0  0  0  0  0  0  0
    3.9655   -3.6305    5.1733 C   0  0  0  0  0  0  0  0  0  0  0  0
    5.0599   -4.2377    5.7689 C   0  0  0  0  0  0  0  0  0  0  0  0
    5.2923   -4.1279    7.1322 C   0  0  0  0  0  0  0  0  0  0  0  0
    4.3890   -3.3911    7.8606 C   0  0  0  0  0  0  0  0  0  0  0  0
    4.8341   -3.4337    9.1692 C   0  0  0  0  0  0  0  0  0  0  0  0
    4.3037   -2.8644   10.3142 C   0  0  0  0  0  0  0  0  0  0  0  0
    4.9157   -3.0341   11.5379 C   0  0  0  0  0  0  0  0  0  0  0  0
    6.0704   -3.7844   11.5992 C   0  0  0  0  0  0  0  0  0  0  0  0
    6.6002   -4.3518   10.4617 C   0  0  0  0  0  0  0  0  0  0  0  0
    5.9917   -4.1847    9.2363 C   0  0  0  0  0  0  0  0  0  0  0  0
    6.2287   -4.5843    7.9709 N   0  0  0  0  0  0  0  0  0  0  0  0
   -0.9261   -1.1564    8.1019 O   0  0  0  0  0  0  0  0  0  0  0  0
  1  2  1  0
  2  3  1  0
  2  4  1  0
  4  5  1  0
  5  6  1  0
  6  7  1  0
  7  8  1  0
  8  9  1  0
  9 10  2  0
 10 11  1  0
 11 12  2  0
 12 13  1  0
 13 14  2  0
 14 15  1  0
 15 16  2  0
 16 17  1  0
 17 18  2  0
 18 19  1  0
 19 20  2  0
 20 21  1  0
  6 22  1  0
 14  9  1  0
 21 13  1  0
 20 15  1  0
M  END
$$$$
