
     RDKit          3D

 36 40  0  0  0  0  0  0  0  0999 V2000
   -0.2221   -4.5993    5.7982 C   0  0  0  0  0  0  0  0  0  0  0  0
   -1.1768   -4.8599    6.9360 C   0  0  0  0  0  0  0  0  0  0  0  0
   -1.0758   -3.7508    7.8193 O   0  0  0  0  0  0  0  0  0  0  0  0
   -1.6994   -3.8379    9.0494 C   0  0  0  0  0  0  0  0  0  0  0  0
   -2.3026   -4.9010    9.3580 O   0  0  0  0  0  0  0  0  0  0  0  0
   -1.7016   -2.7804   10.0065 N   0  0  0  0  0  0  0  0  0  0  0  0
   -2.0868   -2.9763   11.3678 C   0  0  2  0  0  0  0  0  0  0  0  0
   -3.5133   -3.3526   11.5694 C   0  0  0  0  0  0  0  0  0  0  0  0
   -4.3609   -2.2901   12.2156 C   0  0  0  0  0  0  0  0  0  0  0  0
   -3.7732   -1.7616   13.4990 C   0  0  2  0  0  0  0  0  0  0  0  0
   -2.2919   -2.0977   13.5936 C   0  0  1  0  0  0  0  0  0  0  0  0
   -1.6909   -1.7792   12.2462 C   0  0  0  0  0  0  0  0  0  0  0  0
   -1.7323   -1.2492   14.7024 C   0  0  0  0  0  0  0  0  0  0  0  0
   -2.2746   -1.8764   15.9758 C   0  0  2  0  0  0  0  0  0  0  0  0
   -3.7406   -2.0288   15.9857 C   0  0  2  0  0  0  0  0  0  0  0  0
   -4.4428   -2.2926   14.7127 C   0  0  1  0  0  0  0  0  0  0  0  0
   -5.8423   -1.7783   14.8637 C   0  0  0  0  0  0  0  0  0  0  0  0
   -6.8403   -2.4446   15.3694 C   0  0  0  0  0  0  0  0  0  0  0  0
   -8.1972   -2.3264   14.8055 C   0  0  0  0  0  0  0  0  0  0  0  0
   -8.4018   -1.4079   13.8106 C   0  0  0  0  0  0  0  0  0  0  0  0
   -9.6635   -1.2746   13.2622 C   0  0  0  0  0  0  0  0  0  0  0  0
  -10.7239   -2.0473   13.6952 C   0  0  0  0  0  0  0  0  0  0  0  0
  -10.4546   -2.9557   14.7011 C   0  0  0  0  0  0  0  0  0  0  0  0
   -9.2087   -3.0794   15.2347 N   0  0  0  0  0  0  0  0  0  0  0  0
  -12.0481   -1.8849   13.0960 C   0  0  0  0  0  0  0  0  0  0  0  0
  -13.1724   -2.0997   13.8729 C   0  0  0  0  0  0  0  0  0  0  0  0
  -14.4539   -1.9564   13.3474 C   0  0  0  0  0  0  0  0  0  0  0  0
  -14.6431   -1.5959   12.0363 C   0  0  0  0  0  0  0  0  0  0  0  0
  -13.5096   -1.3813   11.2595 C   0  0  0  0  0  0  0  0  0  0  0  0
  -12.2417   -1.5235   11.7809 C   0  0  0  0  0  0  0  0  0  0  0  0
  -13.6837   -1.0200    9.9454 F   0  0  0  0  0  0  0  0  0  0  0  0
   -4.2599   -0.8078   16.7175 C   0  0  2  0  0  0  0  0  0  0  0  0
   -3.1227   -0.1508   17.2432 O   0  0  0  0  0  0  0  0  0  0  0  0
   -1.9990   -0.9560   17.1082 C   0  0  0  0  0  0  0  0  0  0  0  0
   -0.9633   -0.8944   17.8218 O   0  0  0  0  0  0  0  0  0  0  0  0
   -5.1505   -1.1808   17.8779 C   0  0  0  0  0  0  0  0  0  0  0  0
  1  2  1  0
  2  3  1  0
  3  4  1  0
  4  5  2  0
  4  6  1  0
  7  6  1  6
  7  8  1  0
  8  9  1  0
 10  9  1  6
 10 11  1  0
 11 12  1  6
 11 13  1  0
 14 13  1  6
 14 15  1  0
 15 16  1  0
 16 17  1  1
 17 18  2  0
 18 19  1  0
 19 20  2  0
 20 21  1  0
 21 22  2  0
 22 23  1  0
 23 24  2  0
 22 25  1  0
 25 26  2  0
 26 27  1  0
 27 28  2  0
 28 29  1  0
 29 30  2  0
 29 31  1  0
 15 32  1  6
 32 33  1  0
 33 34  1  0
 34 35  2  0
 32 36  1  1
 12  7  1  0
 34 14  1  0
 16 10  1  0
 24 19  1  0
 30 25  1  0
M  END
$$$$
