
     RDKit          3D

 36 40  0  0  0  0  0  0  0  0999 V2000
   -0.4261   -9.4833   20.9931 C   0  0  0  0  0  0  0  0  0  0  0  0
   -1.6299   -8.8088   20.3850 C   0  0  0  0  0  0  0  0  0  0  0  0
   -1.1689   -7.6017   19.7927 O   0  0  0  0  0  0  0  0  0  0  0  0
   -2.1040   -6.7496   19.2366 C   0  0  0  0  0  0  0  0  0  0  0  0
   -3.3279   -7.0387   19.3258 O   0  0  0  0  0  0  0  0  0  0  0  0
   -1.7625   -5.5431   18.5568 N   0  0  0  0  0  0  0  0  0  0  0  0
   -2.7207   -4.5228   18.2730 C   0  0  2  0  0  0  0  0  0  0  0  0
   -3.7256   -4.8761   17.2325 C   0  0  0  0  0  0  0  0  0  0  0  0
   -3.5829   -4.1245   15.9365 C   0  0  0  0  0  0  0  0  0  0  0  0
   -3.5248   -2.6298   16.1210 C   0  0  2  0  0  0  0  0  0  0  0  0
   -3.1823   -2.2760   17.5610 C   0  0  1  0  0  0  0  0  0  0  0  0
   -2.0425   -3.1783   17.9669 C   0  0  0  0  0  0  0  0  0  0  0  0
   -2.8086   -0.8190   17.5646 C   0  0  0  0  0  0  0  0  0  0  0  0
   -4.1250   -0.0854   17.3697 C   0  0  2  0  0  0  0  0  0  0  0  0
   -4.8850   -0.5318   16.1885 C   0  0  2  0  0  0  0  0  0  0  0  0
   -4.7947   -1.9460   15.7700 C   0  0  1  0  0  0  0  0  0  0  0  0
   -5.0803   -1.9921   14.2996 C   0  0  0  0  0  0  0  0  0  0  0  0
   -6.1509   -1.5247   13.7241 C   0  0  0  0  0  0  0  0  0  0  0  0
   -6.5060   -1.9142   12.3474 C   0  0  0  0  0  0  0  0  0  0  0  0
   -7.8339   -1.9703   12.0178 C   0  0  0  0  0  0  0  0  0  0  0  0
   -8.1975   -2.3322   10.7343 C   0  0  0  0  0  0  0  0  0  0  0  0
   -7.2511   -2.6387    9.7755 C   0  0  0  0  0  0  0  0  0  0  0  0
   -5.9284   -2.5639   10.1686 C   0  0  0  0  0  0  0  0  0  0  0  0
   -5.5805   -2.2067   11.4350 N   0  0  0  0  0  0  0  0  0  0  0  0
   -7.6651   -3.0177    8.4250 C   0  0  0  0  0  0  0  0  0  0  0  0
   -6.7423   -2.9662    7.3958 C   0  0  0  0  0  0  0  0  0  0  0  0
   -7.0890   -3.3183    6.0939 C   0  0  0  0  0  0  0  0  0  0  0  0
   -8.3629   -3.7294    5.7892 C   0  0  0  0  0  0  0  0  0  0  0  0
   -9.2869   -3.7794    6.8276 C   0  0  0  0  0  0  0  0  0  0  0  0
   -8.9423   -3.4307    8.1156 C   0  0  0  0  0  0  0  0  0  0  0  0
  -10.5659   -4.1891    6.5373 F   0  0  0  0  0  0  0  0  0  0  0  0
   -4.5180    0.4453   15.0900 C   0  0  2  0  0  0  0  0  0  0  0  0
   -3.7657    1.4702   15.7102 O   0  0  0  0  0  0  0  0  0  0  0  0
   -3.8310    1.3435   17.0919 C   0  0  0  0  0  0  0  0  0  0  0  0
   -3.6683    2.2764   17.9219 O   0  0  0  0  0  0  0  0  0  0  0  0
   -5.7378    1.0834   14.4705 C   0  0  0  0  0  0  0  0  0  0  0  0
  1  2  1  0
  2  3  1  0
  3  4  1  0
  4  5  2  0
  4  6  1  0
  7  6  1  6
  7  8  1  0
  8  9  1  0
 10  9  1  1
 10 11  1  0
 11 12  1  6
 11 13  1  0
 14 13  1  6
 14 15  1  0
 15 16  1  0
 16 17  1  6
 17 18  2  0
 18 19  1  0
 19 20  2  0
 20 21  1  0
 21 22  2  0
 22 23  1  0
 23 24  2  0
 22 25  1  0
 25 26  2  0
 26 27  1  0
 27 28  2  0
 28 29  1  0
 29 30  2  0
 29 31  1  0
 15 32  1  6
 32 33  1  0
 33 34  1  0
 34 35  2  0
 32 36  1  1
 12  7  1  0
 34 14  1  0
 16 10  1  0
 24 19  1  0
 30 25  1  0
M  END
$$$$
