
     RDKit          3D

 36 40  0  0  0  0  0  0  0  0999 V2000
    2.9911    4.1609   13.7532 C   0  0  0  0  0  0  0  0  0  0  0  0
    2.6631    2.6915   13.6688 C   0  0  0  0  0  0  0  0  0  0  0  0
    1.8455    2.3879   14.7913 O   0  0  0  0  0  0  0  0  0  0  0  0
    1.1023    1.2233   14.7607 C   0  0  0  0  0  0  0  0  0  0  0  0
    0.7337    0.7592   13.6481 O   0  0  0  0  0  0  0  0  0  0  0  0
    0.7211    0.5029   15.9312 N   0  0  0  0  0  0  0  0  0  0  0  0
    0.0380   -0.7501   15.8744 C   0  0  2  0  0  0  0  0  0  0  0  0
   -0.6761   -1.0193   14.5958 C   0  0  0  0  0  0  0  0  0  0  0  0
   -2.1777   -1.0017   14.6959 C   0  0  0  0  0  0  0  0  0  0  0  0
   -2.7097   -1.8922   15.7893 C   0  0  2  0  0  0  0  0  0  0  0  0
   -1.6138   -2.2349   16.7882 C   0  0  1  0  0  0  0  0  0  0  0  0
   -0.8852   -0.9473   17.0869 C   0  0  0  0  0  0  0  0  0  0  0  0
   -2.3020   -2.8143   17.9937 C   0  0  0  0  0  0  0  0  0  0  0  0
   -2.7582   -4.1937   17.5484 C   0  0  2  0  0  0  0  0  0  0  0  0
   -3.5642   -4.1835   16.3145 C   0  0  2  0  0  0  0  0  0  0  0  0
   -3.2829   -3.1642   15.2824 C   0  0  1  0  0  0  0  0  0  0  0  0
   -4.5507   -2.9520   14.5121 C   0  0  0  0  0  0  0  0  0  0  0  0
   -5.6816   -3.5562   14.7395 C   0  0  0  0  0  0  0  0  0  0  0  0
   -6.9117   -3.1598   14.0304 C   0  0  0  0  0  0  0  0  0  0  0  0
   -7.5790   -4.1188   13.3161 C   0  0  0  0  0  0  0  0  0  0  0  0
   -8.7357   -3.7769   12.6410 C   0  0  0  0  0  0  0  0  0  0  0  0
   -9.2344   -2.4887   12.6703 C   0  0  0  0  0  0  0  0  0  0  0  0
   -8.5169   -1.5663   13.4079 C   0  0  0  0  0  0  0  0  0  0  0  0
   -7.3788   -1.9129   14.0691 N   0  0  0  0  0  0  0  0  0  0  0  0
  -10.4611   -2.1559   11.9469 C   0  0  0  0  0  0  0  0  0  0  0  0
  -10.7140   -2.7634   10.7300 C   0  0  0  0  0  0  0  0  0  0  0  0
  -11.8684   -2.4797   10.0050 C   0  0  0  0  0  0  0  0  0  0  0  0
  -12.7961   -1.5844   10.4767 C   0  0  0  0  0  0  0  0  0  0  0  0
  -12.5372   -0.9764   11.7005 C   0  0  0  0  0  0  0  0  0  0  0  0
  -11.3941   -1.2582   12.4170 C   0  0  0  0  0  0  0  0  0  0  0  0
  -13.4570   -0.0780   12.1850 F   0  0  0  0  0  0  0  0  0  0  0  0
   -5.0050   -4.1831   16.7836 C   0  0  2  0  0  0  0  0  0  0  0  0
   -4.9634   -4.3880   18.1827 O   0  0  0  0  0  0  0  0  0  0  0  0
   -3.6790   -4.7400   18.5775 C   0  0  0  0  0  0  0  0  0  0  0  0
   -3.3838   -5.3951   19.6116 O   0  0  0  0  0  0  0  0  0  0  0  0
   -5.7968   -5.3168   16.1781 C   0  0  0  0  0  0  0  0  0  0  0  0
  1  2  1  0
  2  3  1  0
  3  4  1  0
  4  5  2  0
  4  6  1  0
  7  6  1  6
  7  8  1  0
  8  9  1  0
 10  9  1  6
 10 11  1  0
 11 12  1  1
 11 13  1  0
 14 13  1  1
 14 15  1  0
 15 16  1  0
 16 17  1  1
 17 18  2  0
 18 19  1  0
 19 20  2  0
 20 21  1  0
 21 22  2  0
 22 23  1  0
 23 24  2  0
 22 25  1  0
 25 26  2  0
 26 27  1  0
 27 28  2  0
 28 29  1  0
 29 30  2  0
 29 31  1  0
 15 32  1  1
 32 33  1  0
 33 34  1  0
 34 35  2  0
 32 36  1  6
 12  7  1  0
 34 14  1  0
 16 10  1  0
 24 19  1  0
 30 25  1  0
M  END
$$$$
