
     RDKit          3D

 36 40  0  0  0  0  0  0  0  0999 V2000
    4.9935    3.4622   10.4241 C   0  0  0  0  0  0  0  0  0  0  0  0
    4.5724    2.5674   11.5624 C   0  0  0  0  0  0  0  0  0  0  0  0
    3.1562    2.6533   11.6502 O   0  0  0  0  0  0  0  0  0  0  0  0
    2.4836    1.6572   12.3322 C   0  0  0  0  0  0  0  0  0  0  0  0
    3.0039    1.1639   13.3691 O   0  0  0  0  0  0  0  0  0  0  0  0
    1.2154    1.1454   11.9271 N   0  0  0  0  0  0  0  0  0  0  0  0
    0.3919    0.3600   12.7903 C   0  0  2  0  0  0  0  0  0  0  0  0
   -0.4508   -0.6562   12.1015 C   0  0  0  0  0  0  0  0  0  0  0  0
   -1.9273   -0.3649   12.1142 C   0  0  0  0  0  0  0  0  0  0  0  0
   -2.4655   -0.0881   13.4945 C   0  0  2  0  0  0  0  0  0  0  0  0
   -1.3373    0.2622   14.4541 C   0  0  1  0  0  0  0  0  0  0  0  0
   -0.4449    1.2412   13.7308 C   0  0  0  0  0  0  0  0  0  0  0  0
   -1.9854    0.8504   15.6774 C   0  0  0  0  0  0  0  0  0  0  0  0
   -2.6305   -0.3346   16.3765 C   0  0  2  0  0  0  0  0  0  0  0  0
   -3.5288   -1.1188   15.5102 C   0  0  2  0  0  0  0  0  0  0  0  0
   -3.2193   -1.2302   14.0697 C   0  0  1  0  0  0  0  0  0  0  0  0
   -4.5137   -1.4770   13.3561 C   0  0  0  0  0  0  0  0  0  0  0  0
   -5.4199   -0.5764   13.1043 C   0  0  0  0  0  0  0  0  0  0  0  0
   -6.8259   -0.9556   12.8750 C   0  0  0  0  0  0  0  0  0  0  0  0
   -7.4846   -0.3753   11.8240 C   0  0  0  0  0  0  0  0  0  0  0  0
   -8.8037   -0.7114   11.5839 C   0  0  0  0  0  0  0  0  0  0  0  0
   -9.4734   -1.6201   12.3806 C   0  0  0  0  0  0  0  0  0  0  0  0
   -8.7554   -2.1712   13.4249 C   0  0  0  0  0  0  0  0  0  0  0  0
   -7.4567   -1.8337   13.6531 N   0  0  0  0  0  0  0  0  0  0  0  0
  -10.8690   -1.9572   12.1023 C   0  0  0  0  0  0  0  0  0  0  0  0
  -11.2808   -2.1004   10.7895 C   0  0  0  0  0  0  0  0  0  0  0  0
  -12.5987   -2.4217   10.4748 C   0  0  0  0  0  0  0  0  0  0  0  0
  -13.5350   -2.6073   11.4615 C   0  0  0  0  0  0  0  0  0  0  0  0
  -13.1158   -2.4621   12.7797 C   0  0  0  0  0  0  0  0  0  0  0  0
  -11.8111   -2.1441   13.0897 C   0  0  0  0  0  0  0  0  0  0  0  0
  -14.0422   -2.6450   13.7778 F   0  0  0  0  0  0  0  0  0  0  0  0
   -4.9168   -0.5776   15.7873 C   0  0  2  0  0  0  0  0  0  0  0  0
   -4.7839    0.3021   16.8871 O   0  0  0  0  0  0  0  0  0  0  0  0
   -3.5197    0.1787   17.4493 C   0  0  0  0  0  0  0  0  0  0  0  0
   -3.2169    0.4559   18.6398 O   0  0  0  0  0  0  0  0  0  0  0  0
   -5.8795   -1.6693   16.1878 C   0  0  0  0  0  0  0  0  0  0  0  0
  1  2  1  0
  2  3  1  0
  3  4  1  0
  4  5  2  0
  4  6  1  0
  7  6  1  6
  7  8  1  0
  8  9  1  0
 10  9  1  6
 10 11  1  0
 11 12  1  6
 11 13  1  0
 14 13  1  6
 14 15  1  0
 15 16  1  0
 16 17  1  6
 17 18  2  0
 18 19  1  0
 19 20  2  0
 20 21  1  0
 21 22  2  0
 22 23  1  0
 23 24  2  0
 22 25  1  0
 25 26  2  0
 26 27  1  0
 27 28  2  0
 28 29  1  0
 29 30  2  0
 29 31  1  0
 15 32  1  6
 32 33  1  0
 33 34  1  0
 34 35  2  0
 32 36  1  1
 12  7  1  0
 34 14  1  0
 16 10  1  0
 24 19  1  0
 30 25  1  0
M  END
$$$$
