
     RDKit          3D

 36 40  0  0  0  0  0  0  0  0999 V2000
    4.7369    1.4468   15.4250 C   0  0  0  0  0  0  0  0  0  0  0  0
    3.7196    0.3551   15.6423 C   0  0  0  0  0  0  0  0  0  0  0  0
    2.4385    0.9488   15.4780 O   0  0  0  0  0  0  0  0  0  0  0  0
    1.3312    0.1221   15.4841 C   0  0  0  0  0  0  0  0  0  0  0  0
    1.3864   -0.9737   16.1050 O   0  0  0  0  0  0  0  0  0  0  0  0
    0.1097    0.4391   14.8194 N   0  0  0  0  0  0  0  0  0  0  0  0
   -1.1420   -0.1372   15.1950 C   0  0  2  0  0  0  0  0  0  0  0  0
   -1.4887   -1.4018   14.4895 C   0  0  0  0  0  0  0  0  0  0  0  0
   -2.6305   -1.2884   13.5155 C   0  0  0  0  0  0  0  0  0  0  0  0
   -3.8658   -0.6710   14.1191 C   0  0  2  0  0  0  0  0  0  0  0  0
   -3.5253    0.0768   15.4002 C   0  0  1  0  0  0  0  0  0  0  0  0
   -2.2850    0.8864   15.1098 C   0  0  0  0  0  0  0  0  0  0  0  0
   -4.7208    0.9294   15.7266 C   0  0  0  0  0  0  0  0  0  0  0  0
   -5.7722   -0.0546   16.2119 C   0  0  2  0  0  0  0  0  0  0  0  0
   -6.0315   -1.1593   15.2713 C   0  0  2  0  0  0  0  0  0  0  0  0
   -4.9232   -1.6639   14.4344 C   0  0  1  0  0  0  0  0  0  0  0  0
   -5.5338   -2.2584   13.2018 C   0  0  0  0  0  0  0  0  0  0  0  0
   -6.3022   -1.6272   12.3610 C   0  0  0  0  0  0  0  0  0  0  0  0
   -6.6836   -2.2367   11.0741 C   0  0  0  0  0  0  0  0  0  0  0  0
   -5.8670   -2.0245    9.9956 C   0  0  0  0  0  0  0  0  0  0  0  0
   -6.1987   -2.5836    8.7758 C   0  0  0  0  0  0  0  0  0  0  0  0
   -7.3361   -3.3522    8.6195 C   0  0  0  0  0  0  0  0  0  0  0  0
   -8.1193   -3.5301    9.7441 C   0  0  0  0  0  0  0  0  0  0  0  0
   -7.7842   -2.9753   10.9409 N   0  0  0  0  0  0  0  0  0  0  0  0
   -7.6616   -3.9319    7.3169 C   0  0  0  0  0  0  0  0  0  0  0  0
   -6.6407   -4.4145    6.5179 C   0  0  0  0  0  0  0  0  0  0  0  0
   -6.9011   -4.9761    5.2705 C   0  0  0  0  0  0  0  0  0  0  0  0
   -8.1845   -5.0690    4.7922 C   0  0  0  0  0  0  0  0  0  0  0  0
   -9.2073   -4.5823    5.5993 C   0  0  0  0  0  0  0  0  0  0  0  0
   -8.9480   -4.0267    6.8337 C   0  0  0  0  0  0  0  0  0  0  0  0
  -10.4970   -4.6686    5.1334 F   0  0  0  0  0  0  0  0  0  0  0  0
   -7.2393   -0.7196   14.4688 C   0  0  2  0  0  0  0  0  0  0  0  0
   -7.7154    0.4597   15.0883 O   0  0  0  0  0  0  0  0  0  0  0  0
   -7.0735    0.6546   16.3046 C   0  0  0  0  0  0  0  0  0  0  0  0
   -7.5310    1.3099   17.2779 O   0  0  0  0  0  0  0  0  0  0  0  0
   -8.3501   -1.7410   14.5139 C   0  0  0  0  0  0  0  0  0  0  0  0
  1  2  1  0
  2  3  1  0
  3  4  1  0
  4  5  2  0
  4  6  1  0
  7  6  1  6
  7  8  1  0
  8  9  1  0
 10  9  1  1
 10 11  1  0
 11 12  1  6
 11 13  1  0
 14 13  1  6
 14 15  1  0
 15 16  1  0
 16 17  1  6
 17 18  2  0
 18 19  1  0
 19 20  2  0
 20 21  1  0
 21 22  2  0
 22 23  1  0
 23 24  2  0
 22 25  1  0
 25 26  2  0
 26 27  1  0
 27 28  2  0
 28 29  1  0
 29 30  2  0
 29 31  1  0
 15 32  1  6
 32 33  1  0
 33 34  1  0
 34 35  2  0
 32 36  1  1
 12  7  1  0
 34 14  1  0
 16 10  1  0
 24 19  1  0
 30 25  1  0
M  END
$$$$
