
     RDKit          3D

 36 40  0  0  0  0  0  0  0  0999 V2000
    0.7051   -2.6774    4.9431 C   0  0  0  0  0  0  0  0  0  0  0  0
    0.9582   -3.2459    6.3166 C   0  0  0  0  0  0  0  0  0  0  0  0
    0.6306   -2.2253    7.2504 O   0  0  0  0  0  0  0  0  0  0  0  0
   -0.3050   -2.5105    8.2265 C   0  0  0  0  0  0  0  0  0  0  0  0
   -0.6869   -3.7019    8.3815 O   0  0  0  0  0  0  0  0  0  0  0  0
   -0.8738   -1.5222    9.0833 N   0  0  0  0  0  0  0  0  0  0  0  0
   -1.3465   -1.8234   10.3969 C   0  0  2  0  0  0  0  0  0  0  0  0
   -2.4862   -2.7802   10.4507 C   0  0  0  0  0  0  0  0  0  0  0  0
   -3.7973   -2.1765   10.8771 C   0  0  0  0  0  0  0  0  0  0  0  0
   -3.7025   -1.4032   12.1672 C   0  0  2  0  0  0  0  0  0  0  0  0
   -2.2553   -1.0528   12.4822 C   0  0  1  0  0  0  0  0  0  0  0  0
   -1.6454   -0.5465   11.1978 C   0  0  0  0  0  0  0  0  0  0  0  0
   -2.2953   -0.0099   13.5653 C   0  0  0  0  0  0  0  0  0  0  0  0
   -2.7093   -0.7702   14.8142 C   0  0  2  0  0  0  0  0  0  0  0  0
   -3.9498   -1.5493   14.6519 C   0  0  2  0  0  0  0  0  0  0  0  0
   -4.2615   -2.1348   13.3316 C   0  0  1  0  0  0  0  0  0  0  0  0
   -5.7508   -2.2813   13.2523 C   0  0  0  0  0  0  0  0  0  0  0  0
   -6.5837   -1.3424   12.9051 C   0  0  0  0  0  0  0  0  0  0  0  0
   -8.0193   -1.4430   13.2245 C   0  0  0  0  0  0  0  0  0  0  0  0
   -8.9171   -1.2916   12.2017 C   0  0  0  0  0  0  0  0  0  0  0  0
  -10.2700   -1.3810   12.4706 C   0  0  0  0  0  0  0  0  0  0  0  0
  -10.7375   -1.6198   13.7486 C   0  0  0  0  0  0  0  0  0  0  0  0
   -9.7830   -1.7635   14.7375 C   0  0  0  0  0  0  0  0  0  0  0  0
   -8.4531   -1.6737   14.4626 N   0  0  0  0  0  0  0  0  0  0  0  0
  -12.1748   -1.7102   14.0035 C   0  0  0  0  0  0  0  0  0  0  0  0
  -12.6900   -1.1694   15.1678 C   0  0  0  0  0  0  0  0  0  0  0  0
  -14.0514   -1.2299   15.4539 C   0  0  0  0  0  0  0  0  0  0  0  0
  -14.9292   -1.8306   14.5860 C   0  0  0  0  0  0  0  0  0  0  0  0
  -14.4062   -2.3727   13.4169 C   0  0  0  0  0  0  0  0  0  0  0  0
  -13.0584   -2.3121   13.1350 C   0  0  0  0  0  0  0  0  0  0  0  0
  -15.2730   -2.9772   12.5388 F   0  0  0  0  0  0  0  0  0  0  0  0
   -5.0501   -0.6566   15.1892 C   0  0  2  0  0  0  0  0  0  0  0  0
   -4.4025    0.4487   15.7890 O   0  0  0  0  0  0  0  0  0  0  0  0
   -3.0364    0.2136   15.8774 C   0  0  0  0  0  0  0  0  0  0  0  0
   -2.2534    0.7457   16.7079 O   0  0  0  0  0  0  0  0  0  0  0  0
   -5.8651   -1.3449   16.2574 C   0  0  0  0  0  0  0  0  0  0  0  0
  1  2  1  0
  2  3  1  0
  3  4  1  0
  4  5  2  0
  4  6  1  0
  7  6  1  6
  7  8  1  0
  8  9  1  0
 10  9  1  6
 10 11  1  0
 11 12  1  6
 11 13  1  0
 14 13  1  6
 14 15  1  0
 15 16  1  0
 16 17  1  6
 17 18  2  0
 18 19  1  0
 19 20  2  0
 20 21  1  0
 21 22  2  0
 22 23  1  0
 23 24  2  0
 22 25  1  0
 25 26  2  0
 26 27  1  0
 27 28  2  0
 28 29  1  0
 29 30  2  0
 29 31  1  0
 15 32  1  6
 32 33  1  0
 33 34  1  0
 34 35  2  0
 32 36  1  1
 12  7  1  0
 34 14  1  0
 16 10  1  0
 24 19  1  0
 30 25  1  0
M  END
$$$$
