
     RDKit          3D

 36 40  0  0  0  0  0  0  0  0999 V2000
   -3.5505   -4.4410   22.1292 C   0  0  0  0  0  0  0  0  0  0  0  0
   -3.7905   -5.3090   20.9197 C   0  0  0  0  0  0  0  0  0  0  0  0
   -4.3420   -4.4691   19.9142 O   0  0  0  0  0  0  0  0  0  0  0  0
   -4.5504   -5.0061   18.6581 C   0  0  0  0  0  0  0  0  0  0  0  0
   -5.3249   -5.9930   18.5330 O   0  0  0  0  0  0  0  0  0  0  0  0
   -3.9322   -4.5030   17.4753 N   0  0  0  0  0  0  0  0  0  0  0  0
   -4.6150   -4.4280   16.2231 C   0  0  2  0  0  0  0  0  0  0  0  0
   -3.7781   -3.9775   15.0769 C   0  0  0  0  0  0  0  0  0  0  0  0
   -4.1173   -2.6104   14.5467 C   0  0  0  0  0  0  0  0  0  0  0  0
   -5.5800   -2.4461   14.2225 C   0  0  2  0  0  0  0  0  0  0  0  0
   -6.4100   -3.5201   14.9110 C   0  0  1  0  0  0  0  0  0  0  0  0
   -5.9092   -3.6066   16.3321 C   0  0  0  0  0  0  0  0  0  0  0  0
   -7.8439   -3.0749   14.8190 C   0  0  0  0  0  0  0  0  0  0  0  0
   -8.2166   -3.2822   13.3605 C   0  0  2  0  0  0  0  0  0  0  0  0
   -7.2975   -2.6264   12.4131 C   0  0  2  0  0  0  0  0  0  0  0  0
   -5.8682   -2.5057   12.7675 C   0  0  1  0  0  0  0  0  0  0  0  0
   -5.3274   -1.3188   12.0295 C   0  0  0  0  0  0  0  0  0  0  0  0
   -4.4131   -1.3590   11.1032 C   0  0  0  0  0  0  0  0  0  0  0  0
   -3.2240   -0.4904   11.1701 C   0  0  0  0  0  0  0  0  0  0  0  0
   -3.3085    0.6588   11.9099 C   0  0  0  0  0  0  0  0  0  0  0  0
   -2.2095    1.4931   11.9914 C   0  0  0  0  0  0  0  0  0  0  0  0
   -1.0267    1.1940   11.3430 C   0  0  0  0  0  0  0  0  0  0  0  0
   -1.0034    0.0211   10.6127 C   0  0  0  0  0  0  0  0  0  0  0  0
   -2.0910   -0.7938   10.5385 N   0  0  0  0  0  0  0  0  0  0  0  0
    0.1203    2.0952   11.4478 C   0  0  0  0  0  0  0  0  0  0  0  0
    0.0623    3.1639   12.3243 C   0  0  0  0  0  0  0  0  0  0  0  0
    1.1293    4.0482   12.4596 C   0  0  0  0  0  0  0  0  0  0  0  0
    2.2775    3.8871   11.7244 C   0  0  0  0  0  0  0  0  0  0  0  0
    2.3307    2.8112   10.8447 C   0  0  0  0  0  0  0  0  0  0  0  0
    1.2738    1.9366   10.7118 C   0  0  0  0  0  0  0  0  0  0  0  0
    3.4737    2.6374   10.1023 F   0  0  0  0  0  0  0  0  0  0  0  0
   -7.9501   -1.2990   12.0842 C   0  0  2  0  0  0  0  0  0  0  0  0
   -9.2390   -1.3393   12.6657 O   0  0  0  0  0  0  0  0  0  0  0  0
   -9.5241   -2.6239   13.1106 C   0  0  0  0  0  0  0  0  0  0  0  0
  -10.6766   -3.1080   13.2625 O   0  0  0  0  0  0  0  0  0  0  0  0
   -8.1245   -1.1082   10.5969 C   0  0  0  0  0  0  0  0  0  0  0  0
  1  2  1  0
  2  3  1  0
  3  4  1  0
  4  5  2  0
  4  6  1  0
  7  6  1  1
  7  8  1  0
  8  9  1  0
 10  9  1  6
 10 11  1  0
 11 12  1  1
 11 13  1  0
 14 13  1  1
 14 15  1  0
 15 16  1  0
 16 17  1  6
 17 18  2  0
 18 19  1  0
 19 20  2  0
 20 21  1  0
 21 22  2  0
 22 23  1  0
 23 24  2  0
 22 25  1  0
 25 26  2  0
 26 27  1  0
 27 28  2  0
 28 29  1  0
 29 30  2  0
 29 31  1  0
 15 32  1  1
 32 33  1  0
 33 34  1  0
 34 35  2  0
 32 36  1  6
 12  7  1  0
 34 14  1  0
 16 10  1  0
 24 19  1  0
 30 25  1  0
M  END
$$$$
