
     RDKit          3D

 36 40  0  0  0  0  0  0  0  0999 V2000
    4.2054    0.8087   17.6164 C   0  0  0  0  0  0  0  0  0  0  0  0
    3.2900   -0.0473   16.7779 C   0  0  0  0  0  0  0  0  0  0  0  0
    2.0531   -0.1298   17.4736 O   0  0  0  0  0  0  0  0  0  0  0  0
    1.0296   -0.8597   16.8997 C   0  0  0  0  0  0  0  0  0  0  0  0
    1.2682   -2.0222   16.4742 O   0  0  0  0  0  0  0  0  0  0  0  0
   -0.3021   -0.3692   16.7576 N   0  0  0  0  0  0  0  0  0  0  0  0
   -1.4337   -1.2349   16.6570 C   0  0  2  0  0  0  0  0  0  0  0  0
   -1.4531   -2.1061   15.4496 C   0  0  0  0  0  0  0  0  0  0  0  0
   -2.5113   -1.7583   14.4375 C   0  0  0  0  0  0  0  0  0  0  0  0
   -3.8922   -1.6594   15.0331 C   0  0  2  0  0  0  0  0  0  0  0  0
   -3.8183   -1.4973   16.5446 C   0  0  1  0  0  0  0  0  0  0  0  0
   -2.7530   -0.4630   16.8154 C   0  0  0  0  0  0  0  0  0  0  0  0
   -5.1867   -1.0635   16.9941 C   0  0  0  0  0  0  0  0  0  0  0  0
   -6.0474   -2.3083   16.8574 C   0  0  2  0  0  0  0  0  0  0  0  0
   -5.9959   -2.9225   15.5185 C   0  0  2  0  0  0  0  0  0  0  0  0
   -4.7433   -2.8395   14.7391 C   0  0  1  0  0  0  0  0  0  0  0  0
   -5.1162   -2.9276   13.2904 C   0  0  0  0  0  0  0  0  0  0  0  0
   -5.1090   -1.9347   12.4479 C   0  0  0  0  0  0  0  0  0  0  0  0
   -5.5911   -2.1067   11.0655 C   0  0  0  0  0  0  0  0  0  0  0  0
   -4.7058   -2.5704   10.1293 C   0  0  0  0  0  0  0  0  0  0  0  0
   -5.1291   -2.7420    8.8247 C   0  0  0  0  0  0  0  0  0  0  0  0
   -6.4260   -2.4563    8.4433 C   0  0  0  0  0  0  0  0  0  0  0  0
   -7.2716   -1.9920    9.4328 C   0  0  0  0  0  0  0  0  0  0  0  0
   -6.8452   -1.8263   10.7146 N   0  0  0  0  0  0  0  0  0  0  0  0
   -6.8462   -2.6483    7.0557 C   0  0  0  0  0  0  0  0  0  0  0  0
   -6.1742   -3.5647    6.2668 C   0  0  0  0  0  0  0  0  0  0  0  0
   -6.5382   -3.7830    4.9406 C   0  0  0  0  0  0  0  0  0  0  0  0
   -7.5796   -3.0930    4.3715 C   0  0  0  0  0  0  0  0  0  0  0  0
   -8.2519   -2.1728    5.1689 C   0  0  0  0  0  0  0  0  0  0  0  0
   -7.8906   -1.9577    6.4814 C   0  0  0  0  0  0  0  0  0  0  0  0
   -9.2964   -1.4747    4.6126 F   0  0  0  0  0  0  0  0  0  0  0  0
   -7.1997   -2.3689   14.7833 C   0  0  2  0  0  0  0  0  0  0  0  0
   -7.9578   -1.6618   15.7458 O   0  0  0  0  0  0  0  0  0  0  0  0
   -7.4705   -1.9170   17.0213 C   0  0  0  0  0  0  0  0  0  0  0  0
   -8.1306   -1.8257   18.0898 O   0  0  0  0  0  0  0  0  0  0  0  0
   -8.0751   -3.4656   14.2264 C   0  0  0  0  0  0  0  0  0  0  0  0
  1  2  1  0
  2  3  1  0
  3  4  1  0
  4  5  2  0
  4  6  1  0
  7  6  1  6
  7  8  1  0
  8  9  1  0
 10  9  1  1
 10 11  1  0
 11 12  1  6
 11 13  1  0
 14 13  1  6
 14 15  1  0
 15 16  1  0
 16 17  1  6
 17 18  2  0
 18 19  1  0
 19 20  2  0
 20 21  1  0
 21 22  2  0
 22 23  1  0
 23 24  2  0
 22 25  1  0
 25 26  2  0
 26 27  1  0
 27 28  2  0
 28 29  1  0
 29 30  2  0
 29 31  1  0
 15 32  1  6
 32 33  1  0
 33 34  1  0
 34 35  2  0
 32 36  1  1
 12  7  1  0
 34 14  1  0
 16 10  1  0
 24 19  1  0
 30 25  1  0
M  END
$$$$
