
     RDKit          3D

 36 40  0  0  0  0  0  0  0  0999 V2000
    4.3622    3.3397   17.1402 C   0  0  0  0  0  0  0  0  0  0  0  0
    4.0629    1.9300   16.6963 C   0  0  0  0  0  0  0  0  0  0  0  0
    2.6528    1.7663   16.7715 O   0  0  0  0  0  0  0  0  0  0  0  0
    2.1270    0.5147   16.5133 C   0  0  0  0  0  0  0  0  0  0  0  0
    2.3554   -0.0293   15.3992 O   0  0  0  0  0  0  0  0  0  0  0  0
    1.3285   -0.2106   17.4464 N   0  0  0  0  0  0  0  0  0  0  0  0
    0.5721   -1.3645   17.0774 C   0  0  2  0  0  0  0  0  0  0  0  0
   -0.0320   -1.3116   15.7175 C   0  0  0  0  0  0  0  0  0  0  0  0
   -1.5318   -1.1870   15.6977 C   0  0  0  0  0  0  0  0  0  0  0  0
   -2.2247   -2.2294   16.5373 C   0  0  2  0  0  0  0  0  0  0  0  0
   -1.2552   -2.8562   17.5291 C   0  0  1  0  0  0  0  0  0  0  0  0
   -0.4745   -1.7206   18.1448 C   0  0  0  0  0  0  0  0  0  0  0  0
   -2.0932   -3.6040   18.5296 C   0  0  0  0  0  0  0  0  0  0  0  0
   -2.5953   -4.8230   17.7740 C   0  0  2  0  0  0  0  0  0  0  0  0
   -3.2764   -4.4985   16.5079 C   0  0  2  0  0  0  0  0  0  0  0  0
   -2.8299   -3.3214   15.7344 C   0  0  1  0  0  0  0  0  0  0  0  0
   -4.0008   -2.8530   14.9248 C   0  0  0  0  0  0  0  0  0  0  0  0
   -5.0476   -2.2395   15.3974 C   0  0  0  0  0  0  0  0  0  0  0  0
   -6.2586   -2.0591   14.5764 C   0  0  0  0  0  0  0  0  0  0  0  0
   -6.1424   -1.3594   13.4051 C   0  0  0  0  0  0  0  0  0  0  0  0
   -7.2607   -1.1743   12.6141 C   0  0  0  0  0  0  0  0  0  0  0  0
   -8.4940   -1.6795   12.9784 C   0  0  0  0  0  0  0  0  0  0  0  0
   -8.5473   -2.3761   14.1706 C   0  0  0  0  0  0  0  0  0  0  0  0
   -7.4404   -2.5529   14.9426 N   0  0  0  0  0  0  0  0  0  0  0  0
   -9.6600   -1.4687   12.1211 C   0  0  0  0  0  0  0  0  0  0  0  0
   -9.4927   -1.4380   10.7482 C   0  0  0  0  0  0  0  0  0  0  0  0
  -10.5725   -1.2413    9.8913 C   0  0  0  0  0  0  0  0  0  0  0  0
  -11.8426   -1.0709   10.3837 C   0  0  0  0  0  0  0  0  0  0  0  0
  -12.0054   -1.1026   11.7646 C   0  0  0  0  0  0  0  0  0  0  0  0
  -10.9357   -1.2974   12.6116 C   0  0  0  0  0  0  0  0  0  0  0  0
  -13.2711   -0.9334   12.2717 F   0  0  0  0  0  0  0  0  0  0  0  0
   -4.7525   -4.4695   16.8494 C   0  0  2  0  0  0  0  0  0  0  0  0
   -4.8593   -4.9523   18.1747 O   0  0  0  0  0  0  0  0  0  0  0  0
   -3.6451   -5.4835   18.5906 C   0  0  0  0  0  0  0  0  0  0  0  0
   -3.4951   -6.3544   19.4877 O   0  0  0  0  0  0  0  0  0  0  0  0
   -5.5561   -5.3882   15.9611 C   0  0  0  0  0  0  0  0  0  0  0  0
  1  2  1  0
  2  3  1  0
  3  4  1  0
  4  5  2  0
  4  6  1  0
  7  6  1  1
  7  8  1  0
  8  9  1  0
 10  9  1  6
 10 11  1  0
 11 12  1  1
 11 13  1  0
 14 13  1  1
 14 15  1  0
 15 16  1  0
 16 17  1  1
 17 18  2  0
 18 19  1  0
 19 20  2  0
 20 21  1  0
 21 22  2  0
 22 23  1  0
 23 24  2  0
 22 25  1  0
 25 26  2  0
 26 27  1  0
 27 28  2  0
 28 29  1  0
 29 30  2  0
 29 31  1  0
 15 32  1  1
 32 33  1  0
 33 34  1  0
 34 35  2  0
 32 36  1  6
 12  7  1  0
 34 14  1  0
 16 10  1  0
 24 19  1  0
 30 25  1  0
M  END
$$$$
