
     RDKit          3D

 36 40  0  0  0  0  0  0  0  0999 V2000
  -12.5158   -2.7700   19.9541 C   0  0  0  0  0  0  0  0  0  0  0  0
  -11.7824   -1.7883   19.0754 C   0  0  0  0  0  0  0  0  0  0  0  0
  -10.4911   -2.3335   18.8391 O   0  0  0  0  0  0  0  0  0  0  0  0
   -9.6520   -1.6678   17.9660 C   0  0  0  0  0  0  0  0  0  0  0  0
  -10.0634   -0.6204   17.3974 O   0  0  0  0  0  0  0  0  0  0  0  0
   -8.3270   -2.1011   17.6643 N   0  0  0  0  0  0  0  0  0  0  0  0
   -7.4332   -1.3356   16.8551 C   0  0  2  0  0  0  0  0  0  0  0  0
   -7.8980   -1.0938   15.4613 C   0  0  0  0  0  0  0  0  0  0  0  0
   -7.1178   -1.8225   14.4005 C   0  0  0  0  0  0  0  0  0  0  0  0
   -5.6303   -1.6016   14.5013 C   0  0  2  0  0  0  0  0  0  0  0  0
   -5.2543   -1.0752   15.8789 C   0  0  1  0  0  0  0  0  0  0  0  0
   -6.0096   -1.9136   16.8813 C   0  0  0  0  0  0  0  0  0  0  0  0
   -3.7618   -1.2194   15.9976 C   0  0  0  0  0  0  0  0  0  0  0  0
   -3.1990   -0.1395   15.0887 C   0  0  2  0  0  0  0  0  0  0  0  0
   -3.7233   -0.1885   13.7121 C   0  0  2  0  0  0  0  0  0  0  0  0
   -5.1091   -0.6499   13.4883 C   0  0  1  0  0  0  0  0  0  0  0  0
   -5.1722   -1.2051   12.0978 C   0  0  0  0  0  0  0  0  0  0  0  0
   -4.6933   -2.3565   11.7229 C   0  0  0  0  0  0  0  0  0  0  0  0
   -4.9276   -2.8707   10.3613 C   0  0  0  0  0  0  0  0  0  0  0  0
   -5.7044   -2.1231    9.5170 C   0  0  0  0  0  0  0  0  0  0  0  0
   -5.9415   -2.5795    8.2341 C   0  0  0  0  0  0  0  0  0  0  0  0
   -5.4124   -3.7737    7.7836 C   0  0  0  0  0  0  0  0  0  0  0  0
   -4.6373   -4.4825    8.6818 C   0  0  0  0  0  0  0  0  0  0  0  0
   -4.4097   -4.0245    9.9431 N   0  0  0  0  0  0  0  0  0  0  0  0
   -5.6796   -4.2315    6.4206 C   0  0  0  0  0  0  0  0  0  0  0  0
   -5.5984   -5.5822    6.1332 C   0  0  0  0  0  0  0  0  0  0  0  0
   -5.8450   -6.0659    4.8509 C   0  0  0  0  0  0  0  0  0  0  0  0
   -6.1779   -5.2141    3.8270 C   0  0  0  0  0  0  0  0  0  0  0  0
   -6.2581   -3.8571    4.1212 C   0  0  0  0  0  0  0  0  0  0  0  0
   -6.0137   -3.3798    5.3908 C   0  0  0  0  0  0  0  0  0  0  0  0
   -6.5902   -2.9928    3.1061 F   0  0  0  0  0  0  0  0  0  0  0  0
   -2.6934   -0.9732   12.9248 C   0  0  2  0  0  0  0  0  0  0  0  0
   -1.5892   -1.1526   13.7906 O   0  0  0  0  0  0  0  0  0  0  0  0
   -1.7410   -0.3713   14.9290 C   0  0  0  0  0  0  0  0  0  0  0  0
   -0.8056    0.0443   15.6626 O   0  0  0  0  0  0  0  0  0  0  0  0
   -2.2076   -0.2126   11.7146 C   0  0  0  0  0  0  0  0  0  0  0  0
  1  2  1  0
  2  3  1  0
  3  4  1  0
  4  5  2  0
  4  6  1  0
  7  6  1  6
  7  8  1  0
  8  9  1  0
 10  9  1  1
 10 11  1  0
 11 12  1  1
 11 13  1  0
 14 13  1  1
 14 15  1  0
 15 16  1  0
 16 17  1  6
 17 18  2  0
 18 19  1  0
 19 20  2  0
 20 21  1  0
 21 22  2  0
 22 23  1  0
 23 24  2  0
 22 25  1  0
 25 26  2  0
 26 27  1  0
 27 28  2  0
 28 29  1  0
 29 30  2  0
 29 31  1  0
 15 32  1  6
 32 33  1  0
 33 34  1  0
 34 35  2  0
 32 36  1  6
 12  7  1  0
 34 14  1  0
 16 10  1  0
 24 19  1  0
 30 25  1  0
M  END
$$$$
