
     RDKit          3D

 36 40  0  0  0  0  0  0  0  0999 V2000
    0.7642   -6.4923   21.2600 C   0  0  0  0  0  0  0  0  0  0  0  0
   -0.6805   -6.3138   20.8668 C   0  0  0  0  0  0  0  0  0  0  0  0
   -0.7666   -5.0786   20.1684 O   0  0  0  0  0  0  0  0  0  0  0  0
   -1.9196   -4.8119   19.4549 C   0  0  0  0  0  0  0  0  0  0  0  0
   -2.9740   -5.4446   19.7331 O   0  0  0  0  0  0  0  0  0  0  0  0
   -1.9898   -3.8483   18.4057 N   0  0  0  0  0  0  0  0  0  0  0  0
   -3.2297   -3.3549   17.8966 C   0  0  2  0  0  0  0  0  0  0  0  0
   -3.9231   -4.2632   16.9420 C   0  0  0  0  0  0  0  0  0  0  0  0
   -3.9505   -3.7792   15.5171 C   0  0  0  0  0  0  0  0  0  0  0  0
   -4.4771   -2.3739   15.3780 C   0  0  2  0  0  0  0  0  0  0  0  0
   -4.4323   -1.6455   16.7136 C   0  0  1  0  0  0  0  0  0  0  0  0
   -3.0813   -1.9386   17.3191 C   0  0  0  0  0  0  0  0  0  0  0  0
   -4.6366   -0.1864   16.4103 C   0  0  0  0  0  0  0  0  0  0  0  0
   -6.1072   -0.0734   16.0444 C   0  0  2  0  0  0  0  0  0  0  0  0
   -6.5265   -0.9977   14.9757 C   0  0  2  0  0  0  0  0  0  0  0  0
   -5.8711   -2.3178   14.8710 C   0  0  1  0  0  0  0  0  0  0  0  0
   -5.9762   -2.7526   13.4408 C   0  0  0  0  0  0  0  0  0  0  0  0
   -5.8664   -1.9713   12.4049 C   0  0  0  0  0  0  0  0  0  0  0  0
   -5.8751   -2.5177   11.0358 C   0  0  0  0  0  0  0  0  0  0  0  0
   -4.7656   -2.3200   10.2580 C   0  0  0  0  0  0  0  0  0  0  0  0
   -4.7445   -2.8210    8.9699 C   0  0  0  0  0  0  0  0  0  0  0  0
   -5.8181   -3.5174    8.4488 C   0  0  0  0  0  0  0  0  0  0  0  0
   -6.9079   -3.6842    9.2820 C   0  0  0  0  0  0  0  0  0  0  0  0
   -6.9190   -3.1869   10.5489 N   0  0  0  0  0  0  0  0  0  0  0  0
   -5.7674   -4.0368    7.0826 C   0  0  0  0  0  0  0  0  0  0  0  0
   -5.1949   -3.2654    6.0872 C   0  0  0  0  0  0  0  0  0  0  0  0
   -5.1226   -3.7175    4.7721 C   0  0  0  0  0  0  0  0  0  0  0  0
   -5.6191   -4.9480    4.4203 C   0  0  0  0  0  0  0  0  0  0  0  0
   -6.1937   -5.7196    5.4247 C   0  0  0  0  0  0  0  0  0  0  0  0
   -6.2646   -5.2709    6.7259 C   0  0  0  0  0  0  0  0  0  0  0  0
   -6.6949   -6.9535    5.0871 F   0  0  0  0  0  0  0  0  0  0  0  0
   -6.4508   -0.1855   13.6987 C   0  0  2  0  0  0  0  0  0  0  0  0
   -6.2026    1.1495   14.0955 O   0  0  0  0  0  0  0  0  0  0  0  0
   -6.3473    1.2753   15.4712 C   0  0  0  0  0  0  0  0  0  0  0  0
   -6.6279    2.3388   16.0844 O   0  0  0  0  0  0  0  0  0  0  0  0
   -7.7558   -0.2026   12.9400 C   0  0  0  0  0  0  0  0  0  0  0  0
  1  2  1  0
  2  3  1  0
  3  4  1  0
  4  5  2  0
  4  6  1  0
  7  6  1  6
  7  8  1  0
  8  9  1  0
 10  9  1  1
 10 11  1  0
 11 12  1  6
 11 13  1  0
 14 13  1  6
 14 15  1  0
 15 16  1  0
 16 17  1  6
 17 18  2  0
 18 19  1  0
 19 20  2  0
 20 21  1  0
 21 22  2  0
 22 23  1  0
 23 24  2  0
 22 25  1  0
 25 26  2  0
 26 27  1  0
 27 28  2  0
 28 29  1  0
 29 30  2  0
 29 31  1  0
 15 32  1  6
 32 33  1  0
 33 34  1  0
 34 35  2  0
 32 36  1  1
 12  7  1  0
 34 14  1  0
 16 10  1  0
 24 19  1  0
 30 25  1  0
M  END
$$$$
