
     RDKit          3D

 36 40  0  0  0  0  0  0  0  0999 V2000
   -4.3693   -4.7298    3.8975 C   0  0  0  0  0  0  0  0  0  0  0  0
   -5.1066   -5.0528    5.1725 C   0  0  0  0  0  0  0  0  0  0  0  0
   -4.4513   -4.3451    6.2167 O   0  0  0  0  0  0  0  0  0  0  0  0
   -4.9310   -4.4908    7.5044 C   0  0  0  0  0  0  0  0  0  0  0  0
   -6.0109   -5.1142    7.6904 O   0  0  0  0  0  0  0  0  0  0  0  0
   -4.2673   -3.9701    8.6544 N   0  0  0  0  0  0  0  0  0  0  0  0
   -4.6920   -4.2639    9.9861 C   0  0  2  0  0  0  0  0  0  0  0  0
   -5.9308   -3.5609   10.4202 C   0  0  0  0  0  0  0  0  0  0  0  0
   -5.7210   -2.5030   11.4699 C   0  0  0  0  0  0  0  0  0  0  0  0
   -4.9549   -3.0006   12.6687 C   0  0  2  0  0  0  0  0  0  0  0  0
   -4.2124   -4.2877   12.3393 C   0  0  1  0  0  0  0  0  0  0  0  0
   -3.5522   -4.0732   10.9990 C   0  0  0  0  0  0  0  0  0  0  0  0
   -3.2249   -4.5069   13.4526 C   0  0  0  0  0  0  0  0  0  0  0  0
   -4.0735   -4.9333   14.6388 C   0  0  2  0  0  0  0  0  0  0  0  0
   -5.1697   -3.9992   14.9519 C   0  0  2  0  0  0  0  0  0  0  0  0
   -5.8165   -3.2573   13.8498 C   0  0  1  0  0  0  0  0  0  0  0  0
   -6.3757   -1.9954   14.4334 C   0  0  0  0  0  0  0  0  0  0  0  0
   -5.7003   -0.9055   14.6610 C   0  0  0  0  0  0  0  0  0  0  0  0
   -6.3850    0.3644   14.9634 C   0  0  0  0  0  0  0  0  0  0  0  0
   -7.6858    0.3079   15.3875 C   0  0  0  0  0  0  0  0  0  0  0  0
   -8.3538    1.4824   15.6788 C   0  0  0  0  0  0  0  0  0  0  0  0
   -7.7387    2.7131   15.5518 C   0  0  0  0  0  0  0  0  0  0  0  0
   -6.4261    2.7047   15.1199 C   0  0  0  0  0  0  0  0  0  0  0  0
   -5.7770    1.5427   14.8354 N   0  0  0  0  0  0  0  0  0  0  0  0
   -8.4701    3.9395   15.8680 C   0  0  0  0  0  0  0  0  0  0  0  0
   -8.0912    5.1263   15.2668 C   0  0  0  0  0  0  0  0  0  0  0  0
   -8.7575    6.3191   15.5353 C   0  0  0  0  0  0  0  0  0  0  0  0
   -9.8161    6.3554   16.4087 C   0  0  0  0  0  0  0  0  0  0  0  0
  -10.1930    5.1595   17.0104 C   0  0  0  0  0  0  0  0  0  0  0  0
   -9.5326    3.9796   16.7438 C   0  0  0  0  0  0  0  0  0  0  0  0
  -11.2509    5.1806   17.8870 F   0  0  0  0  0  0  0  0  0  0  0  0
   -4.6236   -3.1005   16.0430 C   0  0  2  0  0  0  0  0  0  0  0  0
   -3.3819   -3.6586   16.4277 O   0  0  0  0  0  0  0  0  0  0  0  0
   -3.2236   -4.9148   15.8564 C   0  0  0  0  0  0  0  0  0  0  0  0
   -2.4945   -5.8378   16.3063 O   0  0  0  0  0  0  0  0  0  0  0  0
   -5.5155   -3.0845   17.2609 C   0  0  0  0  0  0  0  0  0  0  0  0
  1  2  1  0
  2  3  1  0
  3  4  1  0
  4  5  2  0
  4  6  1  0
  7  6  1  6
  7  8  1  0
  8  9  1  0
 10  9  1  6
 10 11  1  0
 11 12  1  6
 11 13  1  0
 14 13  1  6
 14 15  1  0
 15 16  1  0
 16 17  1  1
 17 18  2  0
 18 19  1  0
 19 20  2  0
 20 21  1  0
 21 22  2  0
 22 23  1  0
 23 24  2  0
 22 25  1  0
 25 26  2  0
 26 27  1  0
 27 28  2  0
 28 29  1  0
 29 30  2  0
 29 31  1  0
 15 32  1  1
 32 33  1  0
 33 34  1  0
 34 35  2  0
 32 36  1  1
 12  7  1  0
 34 14  1  0
 16 10  1  0
 24 19  1  0
 30 25  1  0
M  END
$$$$
