
     RDKit          3D

 36 40  0  0  0  0  0  0  0  0999 V2000
   -0.3611   -2.1165    5.4505 C   0  0  0  0  0  0  0  0  0  0  0  0
   -0.9743   -2.5567    6.7559 C   0  0  0  0  0  0  0  0  0  0  0  0
    0.0588   -2.5112    7.7311 O   0  0  0  0  0  0  0  0  0  0  0  0
   -0.2715   -2.7865    9.0444 C   0  0  0  0  0  0  0  0  0  0  0  0
    0.6364   -3.1391    9.8449 O   0  0  0  0  0  0  0  0  0  0  0  0
   -1.5992   -2.6943    9.5572 N   0  0  0  0  0  0  0  0  0  0  0  0
   -1.8783   -2.5845   10.9536 C   0  0  2  0  0  0  0  0  0  0  0  0
   -2.9720   -3.4662   11.4471 C   0  0  0  0  0  0  0  0  0  0  0  0
   -4.2288   -2.7450   11.8540 C   0  0  0  0  0  0  0  0  0  0  0  0
   -3.9798   -1.6243   12.8306 C   0  0  2  0  0  0  0  0  0  0  0  0
   -2.5136   -1.2161   12.8223 C   0  0  1  0  0  0  0  0  0  0  0  0
   -2.1005   -1.1231   11.3736 C   0  0  0  0  0  0  0  0  0  0  0  0
   -2.4341    0.1023   13.5421 C   0  0  0  0  0  0  0  0  0  0  0  0
   -2.6508   -0.2463   15.0051 C   0  0  2  0  0  0  0  0  0  0  0  0
   -3.8792   -1.0213   15.2559 C   0  0  2  0  0  0  0  0  0  0  0  0
   -4.3525   -1.9686   14.2256 C   0  0  1  0  0  0  0  0  0  0  0  0
   -5.8338   -2.1115   14.4019 C   0  0  0  0  0  0  0  0  0  0  0  0
   -6.6896   -1.1302   14.4176 C   0  0  0  0  0  0  0  0  0  0  0  0
   -8.0937   -1.3392   14.0202 C   0  0  0  0  0  0  0  0  0  0  0  0
   -8.8608   -2.1752   14.7869 C   0  0  0  0  0  0  0  0  0  0  0  0
  -10.1812   -2.3904   14.4391 C   0  0  0  0  0  0  0  0  0  0  0  0
  -10.7452   -1.7810   13.3348 C   0  0  0  0  0  0  0  0  0  0  0  0
   -9.9207   -0.9490   12.6015 C   0  0  0  0  0  0  0  0  0  0  0  0
   -8.6217   -0.7436   12.9521 N   0  0  0  0  0  0  0  0  0  0  0  0
  -12.1453   -2.0267   12.9912 C   0  0  0  0  0  0  0  0  0  0  0  0
  -13.0781   -2.1515   14.0051 C   0  0  0  0  0  0  0  0  0  0  0  0
  -14.4225   -2.3848   13.7276 C   0  0  0  0  0  0  0  0  0  0  0  0
  -14.8668   -2.4988   12.4337 C   0  0  0  0  0  0  0  0  0  0  0  0
  -13.9251   -2.3726   11.4181 C   0  0  0  0  0  0  0  0  0  0  0  0
  -12.5947   -2.1417   11.6942 C   0  0  0  0  0  0  0  0  0  0  0  0
  -14.3554   -2.4846   10.1180 F   0  0  0  0  0  0  0  0  0  0  0  0
   -4.9202    0.0059   15.6525 C   0  0  2  0  0  0  0  0  0  0  0  0
   -4.2281    1.2306   15.8013 O   0  0  0  0  0  0  0  0  0  0  0  0
   -2.8566    1.0135   15.7638 C   0  0  0  0  0  0  0  0  0  0  0  0
   -1.9825    1.7577   16.2814 O   0  0  0  0  0  0  0  0  0  0  0  0
   -5.5608   -0.3222   16.9795 C   0  0  0  0  0  0  0  0  0  0  0  0
  1  2  1  0
  2  3  1  0
  3  4  1  0
  4  5  2  0
  4  6  1  0
  7  6  1  6
  7  8  1  0
  8  9  1  0
 10  9  1  6
 10 11  1  0
 11 12  1  6
 11 13  1  0
 14 13  1  6
 14 15  1  0
 15 16  1  0
 16 17  1  6
 17 18  2  0
 18 19  1  0
 19 20  2  0
 20 21  1  0
 21 22  2  0
 22 23  1  0
 23 24  2  0
 22 25  1  0
 25 26  2  0
 26 27  1  0
 27 28  2  0
 28 29  1  0
 29 30  2  0
 29 31  1  0
 15 32  1  6
 32 33  1  0
 33 34  1  0
 34 35  2  0
 32 36  1  1
 12  7  1  0
 34 14  1  0
 16 10  1  0
 24 19  1  0
 30 25  1  0
M  END
$$$$
