
     RDKit          3D

 36 40  0  0  0  0  0  0  0  0999 V2000
    2.0816   -9.4065   13.4247 C   0  0  0  0  0  0  0  0  0  0  0  0
    0.9820   -8.7694   14.2363 C   0  0  0  0  0  0  0  0  0  0  0  0
    1.0773   -7.3666   14.0277 O   0  0  0  0  0  0  0  0  0  0  0  0
    0.0663   -6.5638   14.5207 C   0  0  0  0  0  0  0  0  0  0  0  0
   -0.6930   -7.0154   15.4200 O   0  0  0  0  0  0  0  0  0  0  0  0
   -0.1737   -5.2334   14.0660 N   0  0  0  0  0  0  0  0  0  0  0  0
   -0.9884   -4.3092   14.7886 C   0  0  2  0  0  0  0  0  0  0  0  0
   -2.4526   -4.5686   14.7118 C   0  0  0  0  0  0  0  0  0  0  0  0
   -3.2322   -3.5552   13.9178 C   0  0  0  0  0  0  0  0  0  0  0  0
   -2.9750   -2.1354   14.3530 C   0  0  2  0  0  0  0  0  0  0  0  0
   -1.6900   -2.0431   15.1635 C   0  0  1  0  0  0  0  0  0  0  0  0
   -0.6547   -2.8543   14.4233 C   0  0  0  0  0  0  0  0  0  0  0  0
   -1.3427   -0.5819   15.2467 C   0  0  0  0  0  0  0  0  0  0  0  0
   -2.3613   -0.0004   16.2129 C   0  0  2  0  0  0  0  0  0  0  0  0
   -3.7596   -0.2897   15.8477 C   0  0  2  0  0  0  0  0  0  0  0  0
   -4.0749   -1.5643   15.1700 C   0  0  1  0  0  0  0  0  0  0  0  0
   -5.3240   -1.3445   14.3717 C   0  0  0  0  0  0  0  0  0  0  0  0
   -6.5135   -1.1591   14.8680 C   0  0  0  0  0  0  0  0  0  0  0  0
   -7.7200   -1.3466   14.0419 C   0  0  0  0  0  0  0  0  0  0  0  0
   -7.7023   -0.8648   12.7602 C   0  0  0  0  0  0  0  0  0  0  0  0
   -8.8188   -1.0261   11.9616 C   0  0  0  0  0  0  0  0  0  0  0  0
   -9.9533   -1.6626   12.4272 C   0  0  0  0  0  0  0  0  0  0  0  0
   -9.9100   -2.1265   13.7282 C   0  0  0  0  0  0  0  0  0  0  0  0
   -8.8056   -1.9628   14.5067 N   0  0  0  0  0  0  0  0  0  0  0  0
  -11.1199   -1.8195   11.5593 C   0  0  0  0  0  0  0  0  0  0  0  0
  -12.3814   -1.8673   12.1249 C   0  0  0  0  0  0  0  0  0  0  0  0
  -13.5220   -2.0145   11.3397 C   0  0  0  0  0  0  0  0  0  0  0  0
  -13.4304   -2.1172    9.9738 C   0  0  0  0  0  0  0  0  0  0  0  0
  -12.1598   -2.0685    9.4101 C   0  0  0  0  0  0  0  0  0  0  0  0
  -11.0318   -1.9228   10.1885 C   0  0  0  0  0  0  0  0  0  0  0  0
  -12.0528   -2.1701    8.0441 F   0  0  0  0  0  0  0  0  0  0  0  0
   -4.2286    0.9309   15.0820 C   0  0  2  0  0  0  0  0  0  0  0  0
   -3.2020    1.8954   15.2120 O   0  0  0  0  0  0  0  0  0  0  0  0
   -2.2716    1.4808   16.1564 C   0  0  0  0  0  0  0  0  0  0  0  0
   -1.5138    2.2368   16.8196 O   0  0  0  0  0  0  0  0  0  0  0  0
   -5.4872    1.5193   15.6727 C   0  0  0  0  0  0  0  0  0  0  0  0
  1  2  1  0
  2  3  1  0
  3  4  1  0
  4  5  2  0
  4  6  1  0
  7  6  1  6
  7  8  1  0
  8  9  1  0
 10  9  1  1
 10 11  1  0
 11 12  1  6
 11 13  1  0
 14 13  1  6
 14 15  1  0
 15 16  1  0
 16 17  1  6
 17 18  2  0
 18 19  1  0
 19 20  2  0
 20 21  1  0
 21 22  2  0
 22 23  1  0
 23 24  2  0
 22 25  1  0
 25 26  2  0
 26 27  1  0
 27 28  2  0
 28 29  1  0
 29 30  2  0
 29 31  1  0
 15 32  1  6
 32 33  1  0
 33 34  1  0
 34 35  2  0
 32 36  1  1
 12  7  1  0
 34 14  1  0
 16 10  1  0
 24 19  1  0
 30 25  1  0
M  END
$$$$
