
     RDKit          3D

 36 40  0  0  0  0  0  0  0  0999 V2000
    3.7763    2.3336   17.6649 C   0  0  0  0  0  0  0  0  0  0  0  0
    2.8544    2.3232   16.4717 C   0  0  0  0  0  0  0  0  0  0  0  0
    2.2970    1.0178   16.3946 O   0  0  0  0  0  0  0  0  0  0  0  0
    1.2044    0.8229   15.5714 C   0  0  0  0  0  0  0  0  0  0  0  0
    1.0983    1.5090   14.5191 O   0  0  0  0  0  0  0  0  0  0  0  0
    0.1726   -0.1233   15.8448 N   0  0  0  0  0  0  0  0  0  0  0  0
   -0.6160   -0.7202   14.8144 C   0  0  2  0  0  0  0  0  0  0  0  0
   -1.3755    0.2409   13.9678 C   0  0  0  0  0  0  0  0  0  0  0  0
   -2.8678    0.2085   14.1602 C   0  0  0  0  0  0  0  0  0  0  0  0
   -3.4523   -1.1750   14.0336 C   0  0  2  0  0  0  0  0  0  0  0  0
   -2.3702   -2.2346   14.1841 C   0  0  1  0  0  0  0  0  0  0  0  0
   -1.5285   -1.8256   15.3683 C   0  0  0  0  0  0  0  0  0  0  0  0
   -3.0815   -3.5435   14.3923 C   0  0  0  0  0  0  0  0  0  0  0  0
   -3.6625   -3.8848   13.0304 C   0  0  2  0  0  0  0  0  0  0  0  0
   -4.4889   -2.8108   12.4506 C   0  0  2  0  0  0  0  0  0  0  0  0
   -4.1420   -1.4038   12.7392 C   0  0  1  0  0  0  0  0  0  0  0  0
   -5.4020   -0.6022   12.6142 C   0  0  0  0  0  0  0  0  0  0  0  0
   -6.5573   -1.0673   12.2342 C   0  0  0  0  0  0  0  0  0  0  0  0
   -7.7972   -0.6915   12.9374 C   0  0  0  0  0  0  0  0  0  0  0  0
   -8.8972   -1.4899   12.7715 C   0  0  0  0  0  0  0  0  0  0  0  0
  -10.0740   -1.1629   13.4186 C   0  0  0  0  0  0  0  0  0  0  0  0
  -10.1660   -0.0481   14.2296 C   0  0  0  0  0  0  0  0  0  0  0  0
   -9.0227    0.7175   14.3573 C   0  0  0  0  0  0  0  0  0  0  0  0
   -7.8686    0.3871   13.7159 N   0  0  0  0  0  0  0  0  0  0  0  0
  -11.4242    0.2729   14.9025 C   0  0  0  0  0  0  0  0  0  0  0  0
  -11.5971    1.5327   15.4471 C   0  0  0  0  0  0  0  0  0  0  0  0
  -12.7774    1.8853   16.0963 C   0  0  0  0  0  0  0  0  0  0  0  0
  -13.8113    0.9902   16.2169 C   0  0  0  0  0  0  0  0  0  0  0  0
  -13.6325   -0.2750   15.6676 C   0  0  0  0  0  0  0  0  0  0  0  0
  -12.4637   -0.6226   15.0254 C   0  0  0  0  0  0  0  0  0  0  0  0
  -14.6590   -1.1813   15.7808 F   0  0  0  0  0  0  0  0  0  0  0  0
   -5.9149   -3.1667   12.8194 C   0  0  2  0  0  0  0  0  0  0  0  0
   -5.8633   -4.4620   13.3858 O   0  0  0  0  0  0  0  0  0  0  0  0
   -4.6061   -5.0199   13.1921 C   0  0  0  0  0  0  0  0  0  0  0  0
   -4.3476   -6.2521   13.1641 O   0  0  0  0  0  0  0  0  0  0  0  0
   -6.8124   -3.2323   11.6074 C   0  0  0  0  0  0  0  0  0  0  0  0
  1  2  1  0
  2  3  1  0
  3  4  1  0
  4  5  2  0
  4  6  1  0
  7  6  1  1
  7  8  1  0
  8  9  1  0
 10  9  1  6
 10 11  1  0
 11 12  1  1
 11 13  1  0
 14 13  1  1
 14 15  1  0
 15 16  1  0
 16 17  1  1
 17 18  2  0
 18 19  1  0
 19 20  2  0
 20 21  1  0
 21 22  2  0
 22 23  1  0
 23 24  2  0
 22 25  1  0
 25 26  2  0
 26 27  1  0
 27 28  2  0
 28 29  1  0
 29 30  2  0
 29 31  1  0
 15 32  1  1
 32 33  1  0
 33 34  1  0
 34 35  2  0
 32 36  1  6
 12  7  1  0
 34 14  1  0
 16 10  1  0
 24 19  1  0
 30 25  1  0
M  END
$$$$
