
     RDKit          3D

 36 40  0  0  0  0  0  0  0  0999 V2000
    2.0968    6.0560   12.3556 C   0  0  0  0  0  0  0  0  0  0  0  0
    2.3000    4.5806   12.5923 C   0  0  0  0  0  0  0  0  0  0  0  0
    1.0430    4.0520   12.9933 O   0  0  0  0  0  0  0  0  0  0  0  0
    0.7784    2.7228   12.7232 C   0  0  0  0  0  0  0  0  0  0  0  0
    1.7012    1.9928   12.2704 O   0  0  0  0  0  0  0  0  0  0  0  0
   -0.4964    2.1171   12.9292 N   0  0  0  0  0  0  0  0  0  0  0  0
   -0.6446    0.7967   13.4530 C   0  0  2  0  0  0  0  0  0  0  0  0
   -1.3901   -0.1475   12.5755 C   0  0  0  0  0  0  0  0  0  0  0  0
   -2.7473   -0.5475   13.0883 C   0  0  0  0  0  0  0  0  0  0  0  0
   -2.7183   -1.0622   14.5046 C   0  0  2  0  0  0  0  0  0  0  0  0
   -1.4336   -0.6438   15.2053 C   0  0  1  0  0  0  0  0  0  0  0  0
   -1.2196    0.8140   14.8780 C   0  0  0  0  0  0  0  0  0  0  0  0
   -1.6488   -0.8913   16.6733 C   0  0  0  0  0  0  0  0  0  0  0  0
   -1.6026   -2.4032   16.8178 C   0  0  2  0  0  0  0  0  0  0  0  0
   -2.5322   -3.1146   15.9221 C   0  0  2  0  0  0  0  0  0  0  0  0
   -2.8294   -2.5398   14.5938 C   0  0  1  0  0  0  0  0  0  0  0  0
   -4.1845   -3.0356   14.1895 C   0  0  0  0  0  0  0  0  0  0  0  0
   -5.2636   -2.9570   14.9141 C   0  0  0  0  0  0  0  0  0  0  0  0
   -6.5845   -2.7539   14.2918 C   0  0  0  0  0  0  0  0  0  0  0  0
   -6.6498   -2.7034   12.9250 C   0  0  0  0  0  0  0  0  0  0  0  0
   -7.8747   -2.5143   12.3130 C   0  0  0  0  0  0  0  0  0  0  0  0
   -9.0355   -2.3750   13.0492 C   0  0  0  0  0  0  0  0  0  0  0  0
   -8.9048   -2.4349   14.4236 C   0  0  0  0  0  0  0  0  0  0  0  0
   -7.6941   -2.6214   15.0168 N   0  0  0  0  0  0  0  0  0  0  0  0
  -10.3178   -2.1767   12.3744 C   0  0  0  0  0  0  0  0  0  0  0  0
  -11.3907   -1.6820   13.0940 C   0  0  0  0  0  0  0  0  0  0  0  0
  -12.6307   -1.4754   12.4951 C   0  0  0  0  0  0  0  0  0  0  0  0
  -12.8287   -1.7572   11.1662 C   0  0  0  0  0  0  0  0  0  0  0  0
  -11.7468   -2.2544   10.4473 C   0  0  0  0  0  0  0  0  0  0  0  0
  -10.5200   -2.4585   11.0413 C   0  0  0  0  0  0  0  0  0  0  0  0
  -11.9303   -2.5411    9.1161 F   0  0  0  0  0  0  0  0  0  0  0  0
   -3.7700   -3.3687   16.7584 C   0  0  2  0  0  0  0  0  0  0  0  0
   -3.4351   -2.9944   18.0808 O   0  0  0  0  0  0  0  0  0  0  0  0
   -2.0697   -2.7603   18.1814 C   0  0  0  0  0  0  0  0  0  0  0  0
   -1.3878   -2.8427   19.2369 O   0  0  0  0  0  0  0  0  0  0  0  0
   -4.1487   -4.8299   16.7779 C   0  0  0  0  0  0  0  0  0  0  0  0
  1  2  1  0
  2  3  1  0
  3  4  1  0
  4  5  2  0
  4  6  1  0
  7  6  1  6
  7  8  1  0
  8  9  1  0
 10  9  1  6
 10 11  1  0
 11 12  1  1
 11 13  1  0
 14 13  1  6
 14 15  1  0
 15 16  1  0
 16 17  1  1
 17 18  2  0
 18 19  1  0
 19 20  2  0
 20 21  1  0
 21 22  2  0
 22 23  1  0
 23 24  2  0
 22 25  1  0
 25 26  2  0
 26 27  1  0
 27 28  2  0
 28 29  1  0
 29 30  2  0
 29 31  1  0
 15 32  1  1
 32 33  1  0
 33 34  1  0
 34 35  2  0
 32 36  1  1
 12  7  1  0
 34 14  1  0
 16 10  1  0
 24 19  1  0
 30 25  1  0
M  END
$$$$
