
     RDKit          3D

 36 40  0  0  0  0  0  0  0  0999 V2000
    0.2651   -2.8094    5.4243 C   0  0  0  0  0  0  0  0  0  0  0  0
    0.4453   -3.3833    6.8071 C   0  0  0  0  0  0  0  0  0  0  0  0
   -0.4340   -2.6694    7.6660 O   0  0  0  0  0  0  0  0  0  0  0  0
   -0.5800   -3.1148    8.9659 C   0  0  0  0  0  0  0  0  0  0  0  0
    0.4347   -3.1765    9.7115 O   0  0  0  0  0  0  0  0  0  0  0  0
   -1.8300   -3.5153    9.5242 N   0  0  0  0  0  0  0  0  0  0  0  0
   -2.1030   -3.4494   10.9246 C   0  0  2  0  0  0  0  0  0  0  0  0
   -3.3668   -4.1118   11.3503 C   0  0  0  0  0  0  0  0  0  0  0  0
   -4.4492   -3.1713   11.8076 C   0  0  0  0  0  0  0  0  0  0  0  0
   -3.9852   -2.2020   12.8645 C   0  0  2  0  0  0  0  0  0  0  0  0
   -2.4659   -2.1150   12.8882 C   0  0  1  0  0  0  0  0  0  0  0  0
   -2.0180   -2.0081   11.4508 C   0  0  0  0  0  0  0  0  0  0  0  0
   -2.1213   -0.8987   13.7034 C   0  0  0  0  0  0  0  0  0  0  0  0
   -2.4316   -1.2975   15.1365 C   0  0  2  0  0  0  0  0  0  0  0  0
   -3.8003   -1.8098   15.3278 C   0  0  2  0  0  0  0  0  0  0  0  0
   -4.4459   -2.5586   14.2298 C   0  0  1  0  0  0  0  0  0  0  0  0
   -5.9266   -2.3960   14.3931 C   0  0  0  0  0  0  0  0  0  0  0  0
   -6.6359   -1.4173   13.9087 C   0  0  0  0  0  0  0  0  0  0  0  0
   -8.1069   -1.4975   13.8562 C   0  0  0  0  0  0  0  0  0  0  0  0
   -8.7331   -1.0745   12.7142 C   0  0  0  0  0  0  0  0  0  0  0  0
  -10.1116   -1.1379   12.6355 C   0  0  0  0  0  0  0  0  0  0  0  0
  -10.8729   -1.6187   13.6835 C   0  0  0  0  0  0  0  0  0  0  0  0
  -10.1836   -2.0303   14.8083 C   0  0  0  0  0  0  0  0  0  0  0  0
   -8.8259   -1.9638   14.8761 N   0  0  0  0  0  0  0  0  0  0  0  0
  -12.3301   -1.6749   13.5718 C   0  0  0  0  0  0  0  0  0  0  0  0
  -13.1023   -1.4877   14.7041 C   0  0  0  0  0  0  0  0  0  0  0  0
  -14.4930   -1.5311   14.6475 C   0  0  0  0  0  0  0  0  0  0  0  0
  -15.1444   -1.7621   13.4614 C   0  0  0  0  0  0  0  0  0  0  0  0
  -14.3634   -1.9497   12.3260 C   0  0  0  0  0  0  0  0  0  0  0  0
  -12.9870   -1.9064   12.3835 C   0  0  0  0  0  0  0  0  0  0  0  0
  -15.0018   -2.1819   11.1317 F   0  0  0  0  0  0  0  0  0  0  0  0
   -4.6069   -0.6162   15.7977 C   0  0  2  0  0  0  0  0  0  0  0  0
   -3.6738    0.4197   16.0373 O   0  0  0  0  0  0  0  0  0  0  0  0
   -2.3789   -0.0804   15.9857 C   0  0  0  0  0  0  0  0  0  0  0  0
   -1.3760    0.4221   16.5579 O   0  0  0  0  0  0  0  0  0  0  0  0
   -5.3248   -0.8952   17.0961 C   0  0  0  0  0  0  0  0  0  0  0  0
  1  2  1  0
  2  3  1  0
  3  4  1  0
  4  5  2  0
  4  6  1  0
  7  6  1  6
  7  8  1  0
  8  9  1  0
 10  9  1  6
 10 11  1  0
 11 12  1  6
 11 13  1  0
 14 13  1  6
 14 15  1  0
 15 16  1  0
 16 17  1  6
 17 18  2  0
 18 19  1  0
 19 20  2  0
 20 21  1  0
 21 22  2  0
 22 23  1  0
 23 24  2  0
 22 25  1  0
 25 26  2  0
 26 27  1  0
 27 28  2  0
 28 29  1  0
 29 30  2  0
 29 31  1  0
 15 32  1  6
 32 33  1  0
 33 34  1  0
 34 35  2  0
 32 36  1  1
 12  7  1  0
 34 14  1  0
 16 10  1  0
 24 19  1  0
 30 25  1  0
M  END
$$$$
