
     RDKit          3D

 36 40  0  0  0  0  0  0  0  0999 V2000
    0.6118   -5.7578   22.1983 C   0  0  0  0  0  0  0  0  0  0  0  0
   -0.7412   -5.4823   21.5924 C   0  0  0  0  0  0  0  0  0  0  0  0
   -0.5198   -5.1441   20.2296 O   0  0  0  0  0  0  0  0  0  0  0  0
   -1.6130   -4.8013   19.4569 C   0  0  0  0  0  0  0  0  0  0  0  0
   -2.5590   -5.6251   19.3317 O   0  0  0  0  0  0  0  0  0  0  0  0
   -1.7377   -3.5511   18.7817 N   0  0  0  0  0  0  0  0  0  0  0  0
   -2.9285   -3.1637   18.0948 C   0  0  2  0  0  0  0  0  0  0  0  0
   -3.3085   -4.0399   16.9524 C   0  0  0  0  0  0  0  0  0  0  0  0
   -3.1578   -3.4078   15.5949 C   0  0  0  0  0  0  0  0  0  0  0  0
   -3.8486   -2.0729   15.4823 C   0  0  2  0  0  0  0  0  0  0  0  0
   -4.1410   -1.4978   16.8607 C   0  0  1  0  0  0  0  0  0  0  0  0
   -2.8873   -1.6846   17.6801 C   0  0  0  0  0  0  0  0  0  0  0  0
   -4.4970   -0.0513   16.6522 C   0  0  0  0  0  0  0  0  0  0  0  0
   -5.8827   -0.0837   16.0294 C   0  0  2  0  0  0  0  0  0  0  0  0
   -5.9735   -0.9287   14.8252 C   0  0  2  0  0  0  0  0  0  0  0  0
   -5.1272   -2.1362   14.7307 C   0  0  1  0  0  0  0  0  0  0  0  0
   -4.9195   -2.4189   13.2738 C   0  0  0  0  0  0  0  0  0  0  0  0
   -5.4749   -1.7677   12.2924 C   0  0  0  0  0  0  0  0  0  0  0  0
   -5.5775   -2.3618   10.9472 C   0  0  0  0  0  0  0  0  0  0  0  0
   -4.4191   -2.5753   10.2490 C   0  0  0  0  0  0  0  0  0  0  0  0
   -4.4838   -3.1312    8.9852 C   0  0  0  0  0  0  0  0  0  0  0  0
   -5.6914   -3.4767    8.4097 C   0  0  0  0  0  0  0  0  0  0  0  0
   -6.8246   -3.2370    9.1634 C   0  0  0  0  0  0  0  0  0  0  0  0
   -6.7504   -2.6890   10.4071 N   0  0  0  0  0  0  0  0  0  0  0  0
   -5.7294   -4.0640    7.0708 C   0  0  0  0  0  0  0  0  0  0  0  0
   -4.6065   -3.9863    6.2667 C   0  0  0  0  0  0  0  0  0  0  0  0
   -4.5942   -4.5313    4.9854 C   0  0  0  0  0  0  0  0  0  0  0  0
   -5.7006   -5.1658    4.4774 C   0  0  0  0  0  0  0  0  0  0  0  0
   -6.8270   -5.2412    5.2899 C   0  0  0  0  0  0  0  0  0  0  0  0
   -6.8377   -4.7013    6.5579 C   0  0  0  0  0  0  0  0  0  0  0  0
   -7.9418   -5.8734    4.7946 F   0  0  0  0  0  0  0  0  0  0  0  0
   -5.7952    0.0236   13.6600 C   0  0  2  0  0  0  0  0  0  0  0  0
   -5.8138    1.3267   14.2104 O   0  0  0  0  0  0  0  0  0  0  0  0
   -6.2111    1.2794   15.5405 C   0  0  0  0  0  0  0  0  0  0  0  0
   -6.7434    2.2245   16.1803 O   0  0  0  0  0  0  0  0  0  0  0  0
   -6.9329   -0.0726   12.6724 C   0  0  0  0  0  0  0  0  0  0  0  0
  1  2  1  0
  2  3  1  0
  3  4  1  0
  4  5  2  0
  4  6  1  0
  7  6  1  6
  7  8  1  0
  8  9  1  0
 10  9  1  1
 10 11  1  0
 11 12  1  1
 11 13  1  0
 14 13  1  6
 14 15  1  0
 15 16  1  0
 16 17  1  6
 17 18  2  0
 18 19  1  0
 19 20  2  0
 20 21  1  0
 21 22  2  0
 22 23  1  0
 23 24  2  0
 22 25  1  0
 25 26  2  0
 26 27  1  0
 27 28  2  0
 28 29  1  0
 29 30  2  0
 29 31  1  0
 15 32  1  6
 32 33  1  0
 33 34  1  0
 34 35  2  0
 32 36  1  6
 12  7  1  0
 34 14  1  0
 16 10  1  0
 24 19  1  0
 30 25  1  0
M  END
$$$$
