
     RDKit          3D

 36 40  0  0  0  0  0  0  0  0999 V2000
    2.3738   -6.6649   20.3287 C   0  0  0  0  0  0  0  0  0  0  0  0
    0.9722   -6.1287   20.4768 C   0  0  0  0  0  0  0  0  0  0  0  0
    0.5739   -5.6605   19.1950 O   0  0  0  0  0  0  0  0  0  0  0  0
   -0.7354   -5.2514   19.0281 C   0  0  0  0  0  0  0  0  0  0  0  0
   -1.6384   -5.7808   19.7307 O   0  0  0  0  0  0  0  0  0  0  0  0
   -1.1332   -4.2499   18.0938 N   0  0  0  0  0  0  0  0  0  0  0  0
   -2.4442   -3.6830   18.0858 C   0  0  2  0  0  0  0  0  0  0  0  0
   -3.3931   -4.3076   17.1232 C   0  0  0  0  0  0  0  0  0  0  0  0
   -3.7710   -3.4372   15.9550 C   0  0  0  0  0  0  0  0  0  0  0  0
   -4.2651   -2.0740   16.3663 C   0  0  2  0  0  0  0  0  0  0  0  0
   -3.8502   -1.7576   17.7960 C   0  0  1  0  0  0  0  0  0  0  0  0
   -2.3998   -2.1558   17.9218 C   0  0  0  0  0  0  0  0  0  0  0  0
   -4.0737   -0.2826   17.9882 C   0  0  0  0  0  0  0  0  0  0  0  0
   -5.5838   -0.1304   18.0626 C   0  0  2  0  0  0  0  0  0  0  0  0
   -6.2983   -0.7262   16.9193 C   0  0  2  0  0  0  0  0  0  0  0  0
   -5.7399   -1.9327   16.2744 C   0  0  1  0  0  0  0  0  0  0  0  0
   -6.2271   -1.9434   14.8573 C   0  0  0  0  0  0  0  0  0  0  0  0
   -7.4347   -2.2479   14.4771 C   0  0  0  0  0  0  0  0  0  0  0  0
   -7.7649   -2.4087   13.0495 C   0  0  0  0  0  0  0  0  0  0  0  0
   -6.7328   -2.4290   12.1497 C   0  0  0  0  0  0  0  0  0  0  0  0
   -7.0114   -2.5786   10.8042 C   0  0  0  0  0  0  0  0  0  0  0  0
   -8.3084   -2.7083   10.3458 C   0  0  0  0  0  0  0  0  0  0  0  0
   -9.3059   -2.6802   11.3018 C   0  0  0  0  0  0  0  0  0  0  0  0
   -9.0213   -2.5323   12.6245 N   0  0  0  0  0  0  0  0  0  0  0  0
   -8.5733   -2.8660    8.9162 C   0  0  0  0  0  0  0  0  0  0  0  0
   -7.6778   -3.5766    8.1373 C   0  0  0  0  0  0  0  0  0  0  0  0
   -7.8875   -3.7544    6.7722 C   0  0  0  0  0  0  0  0  0  0  0  0
   -8.9941   -3.2280    6.1535 C   0  0  0  0  0  0  0  0  0  0  0  0
   -9.8914   -2.5144    6.9410 C   0  0  0  0  0  0  0  0  0  0  0  0
   -9.6825   -2.3392    8.2920 C   0  0  0  0  0  0  0  0  0  0  0  0
  -11.0036   -1.9817    6.3352 F   0  0  0  0  0  0  0  0  0  0  0  0
   -6.5267    0.4203   15.9552 C   0  0  2  0  0  0  0  0  0  0  0  0
   -6.1367    1.5946   16.6407 O   0  0  0  0  0  0  0  0  0  0  0  0
   -5.9158    1.3148   17.9832 C   0  0  0  0  0  0  0  0  0  0  0  0
   -5.9899    2.1455   18.9268 O   0  0  0  0  0  0  0  0  0  0  0  0
   -7.9833    0.5673   15.5871 C   0  0  0  0  0  0  0  0  0  0  0  0
  1  2  1  0
  2  3  1  0
  3  4  1  0
  4  5  2  0
  4  6  1  0
  7  6  1  6
  7  8  1  0
  8  9  1  0
 10  9  1  1
 10 11  1  0
 11 12  1  6
 11 13  1  0
 14 13  1  6
 14 15  1  0
 15 16  1  0
 16 17  1  6
 17 18  2  0
 18 19  1  0
 19 20  2  0
 20 21  1  0
 21 22  2  0
 22 23  1  0
 23 24  2  0
 22 25  1  0
 25 26  2  0
 26 27  1  0
 27 28  2  0
 28 29  1  0
 29 30  2  0
 29 31  1  0
 15 32  1  6
 32 33  1  0
 33 34  1  0
 34 35  2  0
 32 36  1  1
 12  7  1  0
 34 14  1  0
 16 10  1  0
 24 19  1  0
 30 25  1  0
M  END
$$$$
