
     RDKit          3D

 36 40  0  0  0  0  0  0  0  0999 V2000
    1.5752   -8.9925   15.7285 C   0  0  0  0  0  0  0  0  0  0  0  0
    0.9949   -7.6685   16.1575 C   0  0  0  0  0  0  0  0  0  0  0  0
    0.3479   -7.8881   17.4040 O   0  0  0  0  0  0  0  0  0  0  0  0
   -0.3394   -6.8347   17.9764 C   0  0  0  0  0  0  0  0  0  0  0  0
    0.3087   -5.8551   18.4343 O   0  0  0  0  0  0  0  0  0  0  0  0
   -1.7610   -6.7882   18.0821 N   0  0  0  0  0  0  0  0  0  0  0  0
   -2.4800   -5.5655   18.2493 C   0  0  2  0  0  0  0  0  0  0  0  0
   -3.9601   -5.6867   18.1397 C   0  0  0  0  0  0  0  0  0  0  0  0
   -4.5559   -5.0529   16.9116 C   0  0  0  0  0  0  0  0  0  0  0  0
   -4.1331   -3.6191   16.7196 C   0  0  2  0  0  0  0  0  0  0  0  0
   -2.8900   -3.3077   17.5405 C   0  0  1  0  0  0  0  0  0  0  0  0
   -1.9365   -4.4590   17.3319 C   0  0  0  0  0  0  0  0  0  0  0  0
   -2.3548   -2.0002   17.0243 C   0  0  0  0  0  0  0  0  0  0  0  0
   -3.3337   -0.9567   17.5360 C   0  0  2  0  0  0  0  0  0  0  0  0
   -4.7380   -1.2375   17.1873 C   0  0  2  0  0  0  0  0  0  0  0  0
   -5.1865   -2.6423   17.0933 C   0  0  1  0  0  0  0  0  0  0  0  0
   -6.3530   -2.6730   16.1531 C   0  0  0  0  0  0  0  0  0  0  0  0
   -6.3864   -2.1208   14.9743 C   0  0  0  0  0  0  0  0  0  0  0  0
   -7.6137   -2.1441   14.1580 C   0  0  0  0  0  0  0  0  0  0  0  0
   -7.5370   -2.6734   12.8974 C   0  0  0  0  0  0  0  0  0  0  0  0
   -8.6716   -2.7090   12.1087 C   0  0  0  0  0  0  0  0  0  0  0  0
   -9.8822   -2.2225   12.5634 C   0  0  0  0  0  0  0  0  0  0  0  0
   -9.8958   -1.7013   13.8431 C   0  0  0  0  0  0  0  0  0  0  0  0
   -8.7731   -1.6706   14.6120 N   0  0  0  0  0  0  0  0  0  0  0  0
  -11.0665   -2.2740   11.7068 C   0  0  0  0  0  0  0  0  0  0  0  0
  -12.3209   -2.1752   12.2815 C   0  0  0  0  0  0  0  0  0  0  0  0
  -13.4775   -2.2180   11.5073 C   0  0  0  0  0  0  0  0  0  0  0  0
  -13.4094   -2.3600   10.1435 C   0  0  0  0  0  0  0  0  0  0  0  0
  -12.1459   -2.4589    9.5707 C   0  0  0  0  0  0  0  0  0  0  0  0
  -11.0019   -2.4164   10.3382 C   0  0  0  0  0  0  0  0  0  0  0  0
  -12.0623   -2.6015    8.2067 F   0  0  0  0  0  0  0  0  0  0  0  0
   -5.0001   -0.4368   15.9278 C   0  0  2  0  0  0  0  0  0  0  0  0
   -3.8614    0.3807   15.7371 O   0  0  0  0  0  0  0  0  0  0  0  0
   -3.0438    0.3328   16.8590 C   0  0  0  0  0  0  0  0  0  0  0  0
   -2.2260    1.2244   17.2083 O   0  0  0  0  0  0  0  0  0  0  0  0
   -6.1967    0.4718   16.0747 C   0  0  0  0  0  0  0  0  0  0  0  0
  1  2  1  0
  2  3  1  0
  3  4  1  0
  4  5  2  0
  4  6  1  0
  7  6  1  6
  7  8  1  0
  8  9  1  0
 10  9  1  1
 10 11  1  0
 11 12  1  6
 11 13  1  0
 14 13  1  6
 14 15  1  0
 15 16  1  0
 16 17  1  6
 17 18  2  0
 18 19  1  0
 19 20  2  0
 20 21  1  0
 21 22  2  0
 22 23  1  0
 23 24  2  0
 22 25  1  0
 25 26  2  0
 26 27  1  0
 27 28  2  0
 28 29  1  0
 29 30  2  0
 29 31  1  0
 15 32  1  6
 32 33  1  0
 33 34  1  0
 34 35  2  0
 32 36  1  1
 12  7  1  0
 34 14  1  0
 16 10  1  0
 24 19  1  0
 30 25  1  0
M  END
$$$$
