
     RDKit          3D

 36 40  0  0  0  0  0  0  0  0999 V2000
   -0.4254   -9.6556   19.8729 C   0  0  0  0  0  0  0  0  0  0  0  0
   -0.0428   -8.2943   19.3492 C   0  0  0  0  0  0  0  0  0  0  0  0
   -1.1277   -7.8418   18.5499 O   0  0  0  0  0  0  0  0  0  0  0  0
   -1.2562   -6.4830   18.3340 C   0  0  0  0  0  0  0  0  0  0  0  0
   -0.3375   -5.7104   18.7192 O   0  0  0  0  0  0  0  0  0  0  0  0
   -2.3840   -5.8921   17.6910 N   0  0  0  0  0  0  0  0  0  0  0  0
   -2.3156   -4.6308   17.0245 C   0  0  2  0  0  0  0  0  0  0  0  0
   -3.3661   -3.6528   17.4211 C   0  0  0  0  0  0  0  0  0  0  0  0
   -4.3944   -3.3664   16.3601 C   0  0  0  0  0  0  0  0  0  0  0  0
   -3.7883   -2.9749   15.0369 C   0  0  2  0  0  0  0  0  0  0  0  0
   -2.3249   -3.3877   14.9696 C   0  0  1  0  0  0  0  0  0  0  0  0
   -2.2508   -4.7994   15.4985 C   0  0  0  0  0  0  0  0  0  0  0  0
   -1.9173   -3.2786   13.5259 C   0  0  0  0  0  0  0  0  0  0  0  0
   -1.8303   -1.7843   13.2641 C   0  0  2  0  0  0  0  0  0  0  0  0
   -3.0537   -1.0455   13.6247 C   0  0  2  0  0  0  0  0  0  0  0  0
   -3.8671   -1.5179   14.7642 C   0  0  1  0  0  0  0  0  0  0  0  0
   -5.2731   -1.0570   14.5261 C   0  0  0  0  0  0  0  0  0  0  0  0
   -5.8969   -0.1489   15.2203 C   0  0  0  0  0  0  0  0  0  0  0  0
   -7.3689   -0.1280   15.2967 C   0  0  0  0  0  0  0  0  0  0  0  0
   -8.0656   -1.0087   14.5130 C   0  0  0  0  0  0  0  0  0  0  0  0
   -9.4469   -1.0126   14.5634 C   0  0  0  0  0  0  0  0  0  0  0  0
  -10.1414   -0.1476   15.3870 C   0  0  0  0  0  0  0  0  0  0  0  0
   -9.3828    0.7167   16.1533 C   0  0  0  0  0  0  0  0  0  0  0  0
   -8.0230    0.7129   16.0965 N   0  0  0  0  0  0  0  0  0  0  0  0
  -11.6033   -0.1747   15.4203 C   0  0  0  0  0  0  0  0  0  0  0  0
  -12.2673   -1.3190   15.0163 C   0  0  0  0  0  0  0  0  0  0  0  0
  -13.6578   -1.3928   15.0313 C   0  0  0  0  0  0  0  0  0  0  0  0
  -14.4168   -0.3279   15.4491 C   0  0  0  0  0  0  0  0  0  0  0  0
  -13.7443    0.8202   15.8541 C   0  0  0  0  0  0  0  0  0  0  0  0
  -12.3681    0.8918   15.8388 C   0  0  0  0  0  0  0  0  0  0  0  0
  -14.4912    1.8939   16.2749 F   0  0  0  0  0  0  0  0  0  0  0  0
   -3.8382   -0.9264   12.3338 C   0  0  2  0  0  0  0  0  0  0  0  0
   -2.9836   -1.3960   11.3091 O   0  0  0  0  0  0  0  0  0  0  0  0
   -1.6962   -1.5697   11.8009 C   0  0  0  0  0  0  0  0  0  0  0  0
   -0.6402   -1.5448   11.1152 O   0  0  0  0  0  0  0  0  0  0  0  0
   -4.1893    0.5071   12.0162 C   0  0  0  0  0  0  0  0  0  0  0  0
  1  2  1  0
  2  3  1  0
  3  4  1  0
  4  5  2  0
  4  6  1  0
  7  6  1  1
  7  8  1  0
  8  9  1  0
 10  9  1  1
 10 11  1  0
 11 12  1  6
 11 13  1  0
 14 13  1  6
 14 15  1  0
 15 16  1  0
 16 17  1  6
 17 18  2  0
 18 19  1  0
 19 20  2  0
 20 21  1  0
 21 22  2  0
 22 23  1  0
 23 24  2  0
 22 25  1  0
 25 26  2  0
 26 27  1  0
 27 28  2  0
 28 29  1  0
 29 30  2  0
 29 31  1  0
 15 32  1  6
 32 33  1  0
 33 34  1  0
 34 35  2  0
 32 36  1  6
 12  7  1  0
 34 14  1  0
 16 10  1  0
 24 19  1  0
 30 25  1  0
M  END
$$$$
