
     RDKit          3D

 36 40  0  0  0  0  0  0  0  0999 V2000
    3.6077    5.2263   14.5024 C   0  0  0  0  0  0  0  0  0  0  0  0
    3.4423    3.9089   13.7875 C   0  0  0  0  0  0  0  0  0  0  0  0
    2.8295    3.0160   14.7082 O   0  0  0  0  0  0  0  0  0  0  0  0
    1.8488    2.1645   14.2363 C   0  0  0  0  0  0  0  0  0  0  0  0
    1.9359    1.7196   13.0599 O   0  0  0  0  0  0  0  0  0  0  0  0
    0.7257    1.7517   15.0126 N   0  0  0  0  0  0  0  0  0  0  0  0
    0.1632    0.4425   14.9154 C   0  0  2  0  0  0  0  0  0  0  0  0
   -0.7146    0.2217   13.7331 C   0  0  0  0  0  0  0  0  0  0  0  0
   -2.1766    0.0638   14.0535 C   0  0  0  0  0  0  0  0  0  0  0  0
   -2.4438   -0.9819   15.1055 C   0  0  2  0  0  0  0  0  0  0  0  0
   -1.1770   -1.2971   15.8880 C   0  0  1  0  0  0  0  0  0  0  0  0
   -0.5349    0.0279   16.2201 C   0  0  0  0  0  0  0  0  0  0  0  0
   -1.6092   -2.0632   17.1081 C   0  0  0  0  0  0  0  0  0  0  0  0
   -1.9979   -3.4346   16.5817 C   0  0  2  0  0  0  0  0  0  0  0  0
   -2.9853   -3.3937   15.4882 C   0  0  2  0  0  0  0  0  0  0  0  0
   -2.9672   -2.2541   14.5478 C   0  0  1  0  0  0  0  0  0  0  0  0
   -4.3547   -2.1093   14.0004 C   0  0  0  0  0  0  0  0  0  0  0  0
   -5.3189   -1.4344   14.5579 C   0  0  0  0  0  0  0  0  0  0  0  0
   -6.6916   -1.4866   14.0233 C   0  0  0  0  0  0  0  0  0  0  0  0
   -6.8966   -2.1494   12.8427 C   0  0  0  0  0  0  0  0  0  0  0  0
   -8.1732   -2.2153   12.3168 C   0  0  0  0  0  0  0  0  0  0  0  0
   -9.2481   -1.6273   12.9556 C   0  0  0  0  0  0  0  0  0  0  0  0
   -8.9776   -0.9734   14.1426 C   0  0  0  0  0  0  0  0  0  0  0  0
   -7.7169   -0.9140   14.6521 N   0  0  0  0  0  0  0  0  0  0  0  0
  -10.5881   -1.7137   12.3761 C   0  0  0  0  0  0  0  0  0  0  0  0
  -10.8516   -2.6826   11.4245 C   0  0  0  0  0  0  0  0  0  0  0  0
  -12.1119   -2.8046   10.8451 C   0  0  0  0  0  0  0  0  0  0  0  0
  -13.1371   -1.9639   11.2012 C   0  0  0  0  0  0  0  0  0  0  0  0
  -12.8669   -0.9916   12.1583 C   0  0  0  0  0  0  0  0  0  0  0  0
  -11.6190   -0.8719   12.7309 C   0  0  0  0  0  0  0  0  0  0  0  0
  -13.8836   -0.1430   12.5245 F   0  0  0  0  0  0  0  0  0  0  0  0
   -4.3279   -3.5977   16.1605 C   0  0  2  0  0  0  0  0  0  0  0  0
   -4.0475   -3.9317   17.5062 O   0  0  0  0  0  0  0  0  0  0  0  0
   -2.6896   -4.1765   17.6662 C   0  0  0  0  0  0  0  0  0  0  0  0
   -2.1750   -4.8924   18.5654 O   0  0  0  0  0  0  0  0  0  0  0  0
   -5.0948   -4.7476   15.5535 C   0  0  0  0  0  0  0  0  0  0  0  0
  1  2  1  0
  2  3  1  0
  3  4  1  0
  4  5  2  0
  4  6  1  0
  7  6  1  1
  7  8  1  0
  8  9  1  0
 10  9  1  6
 10 11  1  0
 11 12  1  1
 11 13  1  0
 14 13  1  1
 14 15  1  0
 15 16  1  0
 16 17  1  1
 17 18  2  0
 18 19  1  0
 19 20  2  0
 20 21  1  0
 21 22  2  0
 22 23  1  0
 23 24  2  0
 22 25  1  0
 25 26  2  0
 26 27  1  0
 27 28  2  0
 28 29  1  0
 29 30  2  0
 29 31  1  0
 15 32  1  1
 32 33  1  0
 33 34  1  0
 34 35  2  0
 32 36  1  6
 12  7  1  0
 34 14  1  0
 16 10  1  0
 24 19  1  0
 30 25  1  0
M  END
$$$$
