
     RDKit          3D

 36 40  0  0  0  0  0  0  0  0999 V2000
    5.4177    1.0178   10.8511 C   0  0  0  0  0  0  0  0  0  0  0  0
    4.4472    0.0295   11.4472 C   0  0  0  0  0  0  0  0  0  0  0  0
    3.4739    0.7856   12.1554 O   0  0  0  0  0  0  0  0  0  0  0  0
    2.4073    0.1112   12.7184 C   0  0  0  0  0  0  0  0  0  0  0  0
    2.4624   -1.1436   12.8268 O   0  0  0  0  0  0  0  0  0  0  0  0
    1.2286    0.7597   13.1923 N   0  0  0  0  0  0  0  0  0  0  0  0
    0.2925    0.1166   14.0583 C   0  0  2  0  0  0  0  0  0  0  0  0
   -0.4791   -0.9944   13.4357 C   0  0  0  0  0  0  0  0  0  0  0  0
   -1.9407   -0.7056   13.2227 C   0  0  0  0  0  0  0  0  0  0  0  0
   -2.6369   -0.2192   14.4678 C   0  0  2  0  0  0  0  0  0  0  0  0
   -1.6269    0.2759   15.4931 C   0  0  1  0  0  0  0  0  0  0  0  0
   -0.6358    1.1320   14.7429 C   0  0  0  0  0  0  0  0  0  0  0  0
   -2.4075    1.0457   16.5230 C   0  0  0  0  0  0  0  0  0  0  0  0
   -3.1540   -0.0175   17.3114 C   0  0  2  0  0  0  0  0  0  0  0  0
   -3.9551   -0.9267   16.4723 C   0  0  2  0  0  0  0  0  0  0  0  0
   -3.4755   -1.2591   15.1148 C   0  0  1  0  0  0  0  0  0  0  0  0
   -4.6783   -1.6142   14.2945 C   0  0  0  0  0  0  0  0  0  0  0  0
   -5.5133   -0.7623   13.7722 C   0  0  0  0  0  0  0  0  0  0  0  0
   -6.6785   -1.2193   12.9933 C   0  0  0  0  0  0  0  0  0  0  0  0
   -6.5328   -1.3539   11.6384 C   0  0  0  0  0  0  0  0  0  0  0  0
   -7.6078   -1.7809   10.8817 C   0  0  0  0  0  0  0  0  0  0  0  0
   -8.8269   -2.0753   11.4614 C   0  0  0  0  0  0  0  0  0  0  0  0
   -8.9114   -1.9201   12.8320 C   0  0  0  0  0  0  0  0  0  0  0  0
   -7.8470   -1.4989   13.5684 N   0  0  0  0  0  0  0  0  0  0  0  0
   -9.9468   -2.5258   10.6358 C   0  0  0  0  0  0  0  0  0  0  0  0
  -11.1547   -2.8244   11.2402 C   0  0  0  0  0  0  0  0  0  0  0  0
  -12.2497   -3.2559   10.4960 C   0  0  0  0  0  0  0  0  0  0  0  0
  -12.1649   -3.3992    9.1333 C   0  0  0  0  0  0  0  0  0  0  0  0
  -10.9483   -3.0978    8.5305 C   0  0  0  0  0  0  0  0  0  0  0  0
   -9.8653   -2.6708    9.2684 C   0  0  0  0  0  0  0  0  0  0  0  0
  -10.8488   -3.2367    7.1672 F   0  0  0  0  0  0  0  0  0  0  0  0
   -5.3562   -0.3501   16.4910 C   0  0  2  0  0  0  0  0  0  0  0  0
   -5.3414    0.6891   17.4508 O   0  0  0  0  0  0  0  0  0  0  0  0
   -4.1570    0.6549   18.1757 C   0  0  0  0  0  0  0  0  0  0  0  0
   -3.9955    1.1129   19.3376 O   0  0  0  0  0  0  0  0  0  0  0  0
   -6.3801   -1.3674   16.9335 C   0  0  0  0  0  0  0  0  0  0  0  0
  1  2  1  0
  2  3  1  0
  3  4  1  0
  4  5  2  0
  4  6  1  0
  7  6  1  6
  7  8  1  0
  8  9  1  0
 10  9  1  6
 10 11  1  0
 11 12  1  6
 11 13  1  0
 14 13  1  6
 14 15  1  0
 15 16  1  0
 16 17  1  6
 17 18  2  0
 18 19  1  0
 19 20  2  0
 20 21  1  0
 21 22  2  0
 22 23  1  0
 23 24  2  0
 22 25  1  0
 25 26  2  0
 26 27  1  0
 27 28  2  0
 28 29  1  0
 29 30  2  0
 29 31  1  0
 15 32  1  6
 32 33  1  0
 33 34  1  0
 34 35  2  0
 32 36  1  1
 12  7  1  0
 34 14  1  0
 16 10  1  0
 24 19  1  0
 30 25  1  0
M  END
$$$$
