
     RDKit          3D

 36 40  0  0  0  0  0  0  0  0999 V2000
    1.0044   -6.4316   21.4494 C   0  0  0  0  0  0  0  0  0  0  0  0
   -0.3334   -6.3300   20.7608 C   0  0  0  0  0  0  0  0  0  0  0  0
   -0.3533   -5.0801   20.0842 O   0  0  0  0  0  0  0  0  0  0  0  0
   -1.4820   -4.7492   19.3587 C   0  0  0  0  0  0  0  0  0  0  0  0
   -2.4255   -5.5814   19.2776 O   0  0  0  0  0  0  0  0  0  0  0  0
   -1.6465   -3.5027   18.6854 N   0  0  0  0  0  0  0  0  0  0  0  0
   -2.9213   -3.0240   18.2545 C   0  0  2  0  0  0  0  0  0  0  0  0
   -3.5542   -3.8161   17.1639 C   0  0  0  0  0  0  0  0  0  0  0  0
   -3.6242   -3.1151   15.8339 C   0  0  0  0  0  0  0  0  0  0  0  0
   -4.2501   -1.7466   15.9170 C   0  0  2  0  0  0  0  0  0  0  0  0
   -4.2493   -1.2382   17.3515 C   0  0  1  0  0  0  0  0  0  0  0  0
   -2.8773   -1.5271   17.9101 C   0  0  0  0  0  0  0  0  0  0  0  0
   -4.5586    0.2322   17.2828 C   0  0  0  0  0  0  0  0  0  0  0  0
   -6.0355    0.2972   16.9315 C   0  0  2  0  0  0  0  0  0  0  0  0
   -6.3945   -0.4730   15.7272 C   0  0  2  0  0  0  0  0  0  0  0  0
   -5.6476   -1.7098   15.4177 C   0  0  1  0  0  0  0  0  0  0  0  0
   -5.7300   -1.9183   13.9360 C   0  0  0  0  0  0  0  0  0  0  0  0
   -6.6207   -2.6457   13.3250 C   0  0  0  0  0  0  0  0  0  0  0  0
   -6.5025   -2.9431   11.8860 C   0  0  0  0  0  0  0  0  0  0  0  0
   -7.5979   -2.7267   11.0932 C   0  0  0  0  0  0  0  0  0  0  0  0
   -7.5171   -2.9962    9.7399 C   0  0  0  0  0  0  0  0  0  0  0  0
   -6.3557   -3.4793    9.1683 C   0  0  0  0  0  0  0  0  0  0  0  0
   -5.2854   -3.6769   10.0198 C   0  0  0  0  0  0  0  0  0  0  0  0
   -5.3749   -3.4086   11.3511 N   0  0  0  0  0  0  0  0  0  0  0  0
   -6.2990   -3.7548    7.7331 C   0  0  0  0  0  0  0  0  0  0  0  0
   -7.0243   -2.9604    6.8633 C   0  0  0  0  0  0  0  0  0  0  0  0
   -7.0012   -3.1831    5.4890 C   0  0  0  0  0  0  0  0  0  0  0  0
   -6.2549   -4.2022    4.9513 C   0  0  0  0  0  0  0  0  0  0  0  0
   -5.5276   -4.9979    5.8301 C   0  0  0  0  0  0  0  0  0  0  0  0
   -5.5514   -4.7764    7.1902 C   0  0  0  0  0  0  0  0  0  0  0  0
   -4.7760   -6.0219    5.3061 F   0  0  0  0  0  0  0  0  0  0  0  0
   -6.3842    0.5350   14.5958 C   0  0  2  0  0  0  0  0  0  0  0  0
   -6.2291    1.8042   15.2010 O   0  0  0  0  0  0  0  0  0  0  0  0
   -6.3743    1.6992   16.5785 C   0  0  0  0  0  0  0  0  0  0  0  0
   -6.7260    2.6292   17.3513 O   0  0  0  0  0  0  0  0  0  0  0  0
   -7.6892    0.5460   13.8369 C   0  0  0  0  0  0  0  0  0  0  0  0
  1  2  1  0
  2  3  1  0
  3  4  1  0
  4  5  2  0
  4  6  1  0
  7  6  1  6
  7  8  1  0
  8  9  1  0
 10  9  1  1
 10 11  1  0
 11 12  1  6
 11 13  1  0
 14 13  1  6
 14 15  1  0
 15 16  1  0
 16 17  1  6
 17 18  2  0
 18 19  1  0
 19 20  2  0
 20 21  1  0
 21 22  2  0
 22 23  1  0
 23 24  2  0
 22 25  1  0
 25 26  2  0
 26 27  1  0
 27 28  2  0
 28 29  1  0
 29 30  2  0
 29 31  1  0
 15 32  1  6
 32 33  1  0
 33 34  1  0
 34 35  2  0
 32 36  1  1
 12  7  1  0
 34 14  1  0
 16 10  1  0
 24 19  1  0
 30 25  1  0
M  END
$$$$
