
     RDKit          3D

 36 40  0  0  0  0  0  0  0  0999 V2000
    0.7387   -8.9269   19.5747 C   0  0  0  0  0  0  0  0  0  0  0  0
   -0.6191   -8.3020   19.7745 C   0  0  0  0  0  0  0  0  0  0  0  0
   -0.4967   -6.9312   19.4189 O   0  0  0  0  0  0  0  0  0  0  0  0
   -1.6050   -6.2913   18.8976 C   0  0  0  0  0  0  0  0  0  0  0  0
   -2.7354   -6.8402   18.9995 O   0  0  0  0  0  0  0  0  0  0  0  0
   -1.5464   -5.0267   18.2406 N   0  0  0  0  0  0  0  0  0  0  0  0
   -2.7105   -4.2424   17.9770 C   0  0  2  0  0  0  0  0  0  0  0  0
   -3.5044   -4.6740   16.7935 C   0  0  0  0  0  0  0  0  0  0  0  0
   -3.4593   -3.7276   15.6242 C   0  0  0  0  0  0  0  0  0  0  0  0
   -3.8048   -2.3084   15.9961 C   0  0  2  0  0  0  0  0  0  0  0  0
   -3.6802   -2.0979   17.4983 C   0  0  1  0  0  0  0  0  0  0  0  0
   -2.3814   -2.7426   17.9173 C   0  0  0  0  0  0  0  0  0  0  0  0
   -3.6978   -0.6108   17.7231 C   0  0  0  0  0  0  0  0  0  0  0  0
   -5.1396   -0.2023   17.4712 C   0  0  2  0  0  0  0  0  0  0  0  0
   -5.6626   -0.6422   16.1654 C   0  0  2  0  0  0  0  0  0  0  0  0
   -5.1766   -1.9133   15.5895 C   0  0  1  0  0  0  0  0  0  0  0  0
   -5.3237   -1.8105   14.1017 C   0  0  0  0  0  0  0  0  0  0  0  0
   -6.4519   -1.6996   13.4611 C   0  0  0  0  0  0  0  0  0  0  0  0
   -6.5627   -2.0867   12.0430 C   0  0  0  0  0  0  0  0  0  0  0  0
   -5.9605   -3.2507   11.6459 C   0  0  0  0  0  0  0  0  0  0  0  0
   -6.0474   -3.6398   10.3224 C   0  0  0  0  0  0  0  0  0  0  0  0
   -6.7286   -2.8807    9.3903 C   0  0  0  0  0  0  0  0  0  0  0  0
   -7.3147   -1.7175    9.8519 C   0  0  0  0  0  0  0  0  0  0  0  0
   -7.2234   -1.3429   11.1572 N   0  0  0  0  0  0  0  0  0  0  0  0
   -6.8047   -3.3176    7.9966 C   0  0  0  0  0  0  0  0  0  0  0  0
   -6.6227   -4.6558    7.6971 C   0  0  0  0  0  0  0  0  0  0  0  0
   -6.6870   -5.1196    6.3857 C   0  0  0  0  0  0  0  0  0  0  0  0
   -6.9342   -4.2600    5.3442 C   0  0  0  0  0  0  0  0  0  0  0  0
   -7.1165   -2.9157    5.6507 C   0  0  0  0  0  0  0  0  0  0  0  0
   -7.0525   -2.4581    6.9492 C   0  0  0  0  0  0  0  0  0  0  0  0
   -7.3647   -2.0437    4.6183 F   0  0  0  0  0  0  0  0  0  0  0  0
   -5.4754    0.5462   15.2440 C   0  0  2  0  0  0  0  0  0  0  0  0
   -5.0653    1.6213   16.0669 O   0  0  0  0  0  0  0  0  0  0  0  0
   -5.2044    1.2799   17.4061 C   0  0  0  0  0  0  0  0  0  0  0  0
   -5.3547    2.0912   18.3574 O   0  0  0  0  0  0  0  0  0  0  0  0
   -6.7661    0.9496   14.5729 C   0  0  0  0  0  0  0  0  0  0  0  0
  1  2  1  0
  2  3  1  0
  3  4  1  0
  4  5  2  0
  4  6  1  0
  7  6  1  6
  7  8  1  0
  8  9  1  0
 10  9  1  1
 10 11  1  0
 11 12  1  6
 11 13  1  0
 14 13  1  6
 14 15  1  0
 15 16  1  0
 16 17  1  6
 17 18  2  0
 18 19  1  0
 19 20  2  0
 20 21  1  0
 21 22  2  0
 22 23  1  0
 23 24  2  0
 22 25  1  0
 25 26  2  0
 26 27  1  0
 27 28  2  0
 28 29  1  0
 29 30  2  0
 29 31  1  0
 15 32  1  6
 32 33  1  0
 33 34  1  0
 34 35  2  0
 32 36  1  1
 12  7  1  0
 34 14  1  0
 16 10  1  0
 24 19  1  0
 30 25  1  0
M  END
$$$$
