
     RDKit          3D

 36 40  0  0  0  0  0  0  0  0999 V2000
    1.1155   -8.1363   21.0525 C   0  0  0  0  0  0  0  0  0  0  0  0
    0.3896   -6.8145   21.0584 C   0  0  0  0  0  0  0  0  0  0  0  0
   -0.0201   -6.5648   19.7204 O   0  0  0  0  0  0  0  0  0  0  0  0
   -0.8845   -5.5119   19.4889 C   0  0  0  0  0  0  0  0  0  0  0  0
   -1.1588   -4.7235   20.4336 O   0  0  0  0  0  0  0  0  0  0  0  0
   -1.4950   -5.2590   18.2249 N   0  0  0  0  0  0  0  0  0  0  0  0
   -1.9927   -3.9724   17.8550 C   0  0  2  0  0  0  0  0  0  0  0  0
   -3.4545   -3.7803   18.0631 C   0  0  0  0  0  0  0  0  0  0  0  0
   -4.2643   -3.6815   16.7984 C   0  0  0  0  0  0  0  0  0  0  0  0
   -3.7340   -2.6523   15.8335 C   0  0  2  0  0  0  0  0  0  0  0  0
   -2.2933   -2.2916   16.1661 C   0  0  1  0  0  0  0  0  0  0  0  0
   -1.5728   -3.5920   16.4266 C   0  0  0  0  0  0  0  0  0  0  0  0
   -1.7539   -1.5491   14.9743 C   0  0  0  0  0  0  0  0  0  0  0  0
   -2.4340   -0.1913   15.0288 C   0  0  2  0  0  0  0  0  0  0  0  0
   -3.9041   -0.2656   15.1048 C   0  0  2  0  0  0  0  0  0  0  0  0
   -4.5291   -1.3988   15.8178 C   0  0  1  0  0  0  0  0  0  0  0  0
   -5.8928   -1.5953   15.2284 C   0  0  0  0  0  0  0  0  0  0  0  0
   -6.2543   -1.2409   14.0287 C   0  0  0  0  0  0  0  0  0  0  0  0
   -7.5750   -1.6142   13.4908 C   0  0  0  0  0  0  0  0  0  0  0  0
   -7.8692   -1.2546   12.2027 C   0  0  0  0  0  0  0  0  0  0  0  0
   -9.0998   -1.5911   11.6708 C   0  0  0  0  0  0  0  0  0  0  0  0
  -10.0407   -2.2824   12.4096 C   0  0  0  0  0  0  0  0  0  0  0  0
   -9.6852   -2.6170   13.7024 C   0  0  0  0  0  0  0  0  0  0  0  0
   -8.4708   -2.2810   14.2171 N   0  0  0  0  0  0  0  0  0  0  0  0
  -11.3345   -2.6257   11.8204 C   0  0  0  0  0  0  0  0  0  0  0  0
  -12.3734   -3.0108   12.6486 C   0  0  0  0  0  0  0  0  0  0  0  0
  -13.6233   -3.3459   12.1345 C   0  0  0  0  0  0  0  0  0  0  0  0
  -13.8653   -3.3045   10.7838 C   0  0  0  0  0  0  0  0  0  0  0  0
  -12.8175   -2.9167    9.9554 C   0  0  0  0  0  0  0  0  0  0  0  0
  -11.5809   -2.5853   10.4657 C   0  0  0  0  0  0  0  0  0  0  0  0
  -13.0452   -2.8708    8.6012 F   0  0  0  0  0  0  0  0  0  0  0  0
   -4.3817   -0.1177   13.6743 C   0  0  2  0  0  0  0  0  0  0  0  0
   -3.2396    0.2204   12.9111 O   0  0  0  0  0  0  0  0  0  0  0  0
   -2.1733    0.5175   13.7502 C   0  0  0  0  0  0  0  0  0  0  0  0
   -1.1910    1.2485   13.4561 O   0  0  0  0  0  0  0  0  0  0  0  0
   -5.3807    1.0042   13.5253 C   0  0  0  0  0  0  0  0  0  0  0  0
  1  2  1  0
  2  3  1  0
  3  4  1  0
  4  5  2  0
  4  6  1  0
  7  6  1  6
  7  8  1  0
  8  9  1  0
 10  9  1  1
 10 11  1  0
 11 12  1  6
 11 13  1  0
 14 13  1  6
 14 15  1  0
 15 16  1  0
 16 17  1  6
 17 18  2  0
 18 19  1  0
 19 20  2  0
 20 21  1  0
 21 22  2  0
 22 23  1  0
 23 24  2  0
 22 25  1  0
 25 26  2  0
 26 27  1  0
 27 28  2  0
 28 29  1  0
 29 30  2  0
 29 31  1  0
 15 32  1  6
 32 33  1  0
 33 34  1  0
 34 35  2  0
 32 36  1  1
 12  7  1  0
 34 14  1  0
 16 10  1  0
 24 19  1  0
 30 25  1  0
M  END
$$$$
