
     RDKit          3D

 36 40  0  0  0  0  0  0  0  0999 V2000
    4.7277    1.1260    8.9863 C   0  0  0  0  0  0  0  0  0  0  0  0
    4.1834    0.5431   10.2661 C   0  0  0  0  0  0  0  0  0  0  0  0
    2.8292    0.9636   10.3656 O   0  0  0  0  0  0  0  0  0  0  0  0
    2.0046    0.3020   11.2556 C   0  0  0  0  0  0  0  0  0  0  0  0
    2.4743   -0.6489   11.9372 O   0  0  0  0  0  0  0  0  0  0  0  0
    0.6320    0.6355   11.4528 N   0  0  0  0  0  0  0  0  0  0  0  0
   -0.1424    0.1013   12.5275 C   0  0  2  0  0  0  0  0  0  0  0  0
   -0.9883   -1.0709   12.1705 C   0  0  0  0  0  0  0  0  0  0  0  0
   -2.4692   -0.8022   12.1657 C   0  0  0  0  0  0  0  0  0  0  0  0
   -2.9617   -0.1716   13.4429 C   0  0  2  0  0  0  0  0  0  0  0  0
   -1.8065    0.4345   14.2268 C   0  0  1  0  0  0  0  0  0  0  0  0
   -0.9623    1.1934   13.2321 C   0  0  0  0  0  0  0  0  0  0  0  0
   -2.4213    1.3219   15.2742 C   0  0  0  0  0  0  0  0  0  0  0  0
   -3.0151    0.3606   16.2903 C   0  0  2  0  0  0  0  0  0  0  0  0
   -3.9281   -0.6362   15.7027 C   0  0  2  0  0  0  0  0  0  0  0  0
   -3.6696   -1.1259   14.3328 C   0  0  1  0  0  0  0  0  0  0  0  0
   -4.9840   -1.5682   13.7650 C   0  0  0  0  0  0  0  0  0  0  0  0
   -5.7500   -0.8541   12.9911 C   0  0  0  0  0  0  0  0  0  0  0  0
   -7.1256   -1.2819   12.6782 C   0  0  0  0  0  0  0  0  0  0  0  0
   -7.6747   -0.8649   11.4950 C   0  0  0  0  0  0  0  0  0  0  0  0
   -8.9627   -1.2504   11.1741 C   0  0  0  0  0  0  0  0  0  0  0  0
   -9.7094   -2.0474   12.0203 C   0  0  0  0  0  0  0  0  0  0  0  0
   -9.1007   -2.4356   13.1986 C   0  0  0  0  0  0  0  0  0  0  0  0
   -7.8318   -2.0507   13.5056 N   0  0  0  0  0  0  0  0  0  0  0  0
  -11.0698   -2.4403   11.6542 C   0  0  0  0  0  0  0  0  0  0  0  0
  -12.0038   -2.6519   12.6524 C   0  0  0  0  0  0  0  0  0  0  0  0
  -13.3113   -3.0260   12.3533 C   0  0  0  0  0  0  0  0  0  0  0  0
  -13.7166   -3.1974   11.0529 C   0  0  0  0  0  0  0  0  0  0  0  0
  -12.7737   -2.9835   10.0531 C   0  0  0  0  0  0  0  0  0  0  0  0
  -11.4799   -2.6132   10.3507 C   0  0  0  0  0  0  0  0  0  0  0  0
  -13.1652   -3.1514    8.7468 F   0  0  0  0  0  0  0  0  0  0  0  0
   -5.3159   -0.0550   15.8821 C   0  0  2  0  0  0  0  0  0  0  0  0
   -5.1611    1.0883   16.7006 O   0  0  0  0  0  0  0  0  0  0  0  0
   -3.8747    1.1331   17.2228 C   0  0  0  0  0  0  0  0  0  0  0  0
   -3.5341    1.7220   18.2825 O   0  0  0  0  0  0  0  0  0  0  0  0
   -6.2399   -1.0097   16.5989 C   0  0  0  0  0  0  0  0  0  0  0  0
  1  2  1  0
  2  3  1  0
  3  4  1  0
  4  5  2  0
  4  6  1  0
  7  6  1  6
  7  8  1  0
  8  9  1  0
 10  9  1  6
 10 11  1  0
 11 12  1  6
 11 13  1  0
 14 13  1  6
 14 15  1  0
 15 16  1  0
 16 17  1  6
 17 18  2  0
 18 19  1  0
 19 20  2  0
 20 21  1  0
 21 22  2  0
 22 23  1  0
 23 24  2  0
 22 25  1  0
 25 26  2  0
 26 27  1  0
 27 28  2  0
 28 29  1  0
 29 30  2  0
 29 31  1  0
 15 32  1  6
 32 33  1  0
 33 34  1  0
 34 35  2  0
 32 36  1  1
 12  7  1  0
 34 14  1  0
 16 10  1  0
 24 19  1  0
 30 25  1  0
M  END
$$$$
