
     RDKit          3D

 36 40  0  0  0  0  0  0  0  0999 V2000
    3.3397    6.4631   13.0239 C   0  0  0  0  0  0  0  0  0  0  0  0
    2.8549    5.1353   12.4989 C   0  0  0  0  0  0  0  0  0  0  0  0
    2.1191    4.5221   13.5491 O   0  0  0  0  0  0  0  0  0  0  0  0
    1.4214    3.3632   13.2663 C   0  0  0  0  0  0  0  0  0  0  0  0
    1.7040    2.7158   12.2221 O   0  0  0  0  0  0  0  0  0  0  0  0
    0.3843    2.8469   14.0982 N   0  0  0  0  0  0  0  0  0  0  0  0
    0.1003    1.4506   14.1958 C   0  0  2  0  0  0  0  0  0  0  0  0
   -0.8207    0.9221   13.1518 C   0  0  0  0  0  0  0  0  0  0  0  0
   -2.1805    0.5191   13.6554 C   0  0  0  0  0  0  0  0  0  0  0  0
   -2.1227   -0.4256   14.8283 C   0  0  2  0  0  0  0  0  0  0  0  0
   -0.7495   -0.3899   15.4837 C   0  0  1  0  0  0  0  0  0  0  0  0
   -0.3690    1.0654   15.6075 C   0  0  0  0  0  0  0  0  0  0  0  0
   -0.8947   -1.0749   16.8149 C   0  0  0  0  0  0  0  0  0  0  0  0
   -1.0373   -2.5488   16.4739 C   0  0  2  0  0  0  0  0  0  0  0  0
   -2.1110   -2.8335   15.5051 C   0  0  2  0  0  0  0  0  0  0  0  0
   -2.4202   -1.8331   14.4626 C   0  0  1  0  0  0  0  0  0  0  0  0
   -3.8530   -2.0302   14.0703 C   0  0  0  0  0  0  0  0  0  0  0  0
   -4.4049   -1.5822   12.9792 C   0  0  0  0  0  0  0  0  0  0  0  0
   -5.8597   -1.6856   12.7649 C   0  0  0  0  0  0  0  0  0  0  0  0
   -6.3669   -1.2399   11.5735 C   0  0  0  0  0  0  0  0  0  0  0  0
   -7.7272   -1.3243   11.3437 C   0  0  0  0  0  0  0  0  0  0  0  0
   -8.5877   -1.8483   12.2892 C   0  0  0  0  0  0  0  0  0  0  0  0
   -8.0162   -2.2810   13.4706 C   0  0  0  0  0  0  0  0  0  0  0  0
   -6.6753   -2.1936   13.6874 N   0  0  0  0  0  0  0  0  0  0  0  0
  -10.0228   -1.9258   12.0182 C   0  0  0  0  0  0  0  0  0  0  0  0
  -10.9174   -1.7541   13.0593 C   0  0  0  0  0  0  0  0  0  0  0  0
  -12.2926   -1.8180   12.8504 C   0  0  0  0  0  0  0  0  0  0  0  0
  -12.8064   -2.0543   11.5996 C   0  0  0  0  0  0  0  0  0  0  0  0
  -11.9029   -2.2263   10.5563 C   0  0  0  0  0  0  0  0  0  0  0  0
  -10.5419   -2.1627   10.7645 C   0  0  0  0  0  0  0  0  0  0  0  0
  -12.4029   -2.4636    9.2987 F   0  0  0  0  0  0  0  0  0  0  0  0
   -3.3116   -3.2159   16.3469 C   0  0  2  0  0  0  0  0  0  0  0  0
   -2.8411   -3.3253   17.6765 O   0  0  0  0  0  0  0  0  0  0  0  0
   -1.4531   -3.2774   17.6992 C   0  0  0  0  0  0  0  0  0  0  0  0
   -0.7175   -3.7657   18.5971 O   0  0  0  0  0  0  0  0  0  0  0  0
   -3.8763   -4.5581   15.9490 C   0  0  0  0  0  0  0  0  0  0  0  0
  1  2  1  0
  2  3  1  0
  3  4  1  0
  4  5  2  0
  4  6  1  0
  7  6  1  1
  7  8  1  0
  8  9  1  0
 10  9  1  6
 10 11  1  0
 11 12  1  1
 11 13  1  0
 14 13  1  1
 14 15  1  0
 15 16  1  0
 16 17  1  1
 17 18  2  0
 18 19  1  0
 19 20  2  0
 20 21  1  0
 21 22  2  0
 22 23  1  0
 23 24  2  0
 22 25  1  0
 25 26  2  0
 26 27  1  0
 27 28  2  0
 28 29  1  0
 29 30  2  0
 29 31  1  0
 15 32  1  1
 32 33  1  0
 33 34  1  0
 34 35  2  0
 32 36  1  6
 12  7  1  0
 34 14  1  0
 16 10  1  0
 24 19  1  0
 30 25  1  0
M  END
$$$$
