
     RDKit          3D

 36 40  0  0  0  0  0  0  0  0999 V2000
    0.0611   -8.0297   18.0767 C   0  0  0  0  0  0  0  0  0  0  0  0
   -1.3131   -8.3917   18.5810 C   0  0  0  0  0  0  0  0  0  0  0  0
   -2.2379   -7.9855   17.5808 O   0  0  0  0  0  0  0  0  0  0  0  0
   -2.2785   -6.6483   17.2346 C   0  0  0  0  0  0  0  0  0  0  0  0
   -1.6611   -5.8108   17.9465 O   0  0  0  0  0  0  0  0  0  0  0  0
   -2.9881   -6.1504   16.1019 N   0  0  0  0  0  0  0  0  0  0  0  0
   -2.8702   -4.7995   15.6537 C   0  0  2  0  0  0  0  0  0  0  0  0
   -3.6111   -3.7993   16.4708 C   0  0  0  0  0  0  0  0  0  0  0  0
   -4.8021   -3.1835   15.7871 C   0  0  0  0  0  0  0  0  0  0  0  0
   -4.4777   -2.6130   14.4302 C   0  0  2  0  0  0  0  0  0  0  0  0
   -3.1665   -3.1799   13.9052 C   0  0  1  0  0  0  0  0  0  0  0  0
   -3.2072   -4.6670   14.1603 C   0  0  0  0  0  0  0  0  0  0  0  0
   -3.1089   -2.8357   12.4420 C   0  0  0  0  0  0  0  0  0  0  0  0
   -2.8355   -1.3413   12.4104 C   0  0  2  0  0  0  0  0  0  0  0  0
   -3.7909   -0.5454   13.2016 C   0  0  2  0  0  0  0  0  0  0  0  0
   -4.3716   -1.1324   14.4270 C   0  0  1  0  0  0  0  0  0  0  0  0
   -5.6939   -0.4650   14.6544 C   0  0  0  0  0  0  0  0  0  0  0  0
   -6.7299   -0.5569   13.8709 C   0  0  0  0  0  0  0  0  0  0  0  0
   -8.1000   -0.5037   14.4123 C   0  0  0  0  0  0  0  0  0  0  0  0
   -8.2956    0.1430   15.6033 C   0  0  0  0  0  0  0  0  0  0  0  0
   -9.5695    0.2094   16.1357 C   0  0  0  0  0  0  0  0  0  0  0  0
  -10.6508   -0.3623   15.4932 C   0  0  0  0  0  0  0  0  0  0  0  0
  -10.3897   -1.0004   14.2956 C   0  0  0  0  0  0  0  0  0  0  0  0
   -9.1317   -1.0604   13.7796 N   0  0  0  0  0  0  0  0  0  0  0  0
  -11.9877   -0.2757   16.0798 C   0  0  0  0  0  0  0  0  0  0  0  0
  -12.2269    0.6458   17.0835 C   0  0  0  0  0  0  0  0  0  0  0  0
  -13.4833    0.7660   17.6718 C   0  0  0  0  0  0  0  0  0  0  0  0
  -14.5287   -0.0293   17.2729 C   0  0  0  0  0  0  0  0  0  0  0  0
  -14.2830   -0.9541   16.2635 C   0  0  0  0  0  0  0  0  0  0  0  0
  -13.0389   -1.0721   15.6821 C   0  0  0  0  0  0  0  0  0  0  0  0
  -15.3200   -1.7570   15.8541 F   0  0  0  0  0  0  0  0  0  0  0  0
   -4.8332   -0.0761   12.2069 C   0  0  2  0  0  0  0  0  0  0  0  0
   -4.3454   -0.4329   10.9279 O   0  0  0  0  0  0  0  0  0  0  0  0
   -3.0259   -0.8572   11.0196 C   0  0  0  0  0  0  0  0  0  0  0  0
   -2.1795   -0.8254   10.0877 O   0  0  0  0  0  0  0  0  0  0  0  0
   -5.0021    1.4238   12.2307 C   0  0  0  0  0  0  0  0  0  0  0  0
  1  2  1  0
  2  3  1  0
  3  4  1  0
  4  5  2  0
  4  6  1  0
  7  6  1  1
  7  8  1  0
  8  9  1  0
 10  9  1  1
 10 11  1  0
 11 12  1  6
 11 13  1  0
 14 13  1  6
 14 15  1  0
 15 16  1  0
 16 17  1  6
 17 18  2  0
 18 19  1  0
 19 20  2  0
 20 21  1  0
 21 22  2  0
 22 23  1  0
 23 24  2  0
 22 25  1  0
 25 26  2  0
 26 27  1  0
 27 28  2  0
 28 29  1  0
 29 30  2  0
 29 31  1  0
 15 32  1  6
 32 33  1  0
 33 34  1  0
 34 35  2  0
 32 36  1  6
 12  7  1  0
 34 14  1  0
 16 10  1  0
 24 19  1  0
 30 25  1  0
M  END
$$$$
