
     RDKit          3D

 36 40  0  0  0  0  0  0  0  0999 V2000
    0.7661  -12.1137   18.0730 C   0  0  0  0  0  0  0  0  0  0  0  0
   -0.4113  -11.2477   18.4440 C   0  0  0  0  0  0  0  0  0  0  0  0
   -0.0655   -9.9134   18.0968 O   0  0  0  0  0  0  0  0  0  0  0  0
   -1.0455   -8.9428   18.1808 C   0  0  0  0  0  0  0  0  0  0  0  0
   -2.2045   -9.2711   18.5526 O   0  0  0  0  0  0  0  0  0  0  0  0
   -0.8212   -7.5696   17.8672 N   0  0  0  0  0  0  0  0  0  0  0  0
   -1.6832   -6.5261   18.3231 C   0  0  2  0  0  0  0  0  0  0  0  0
   -3.0743   -6.5843   17.7951 C   0  0  0  0  0  0  0  0  0  0  0  0
   -3.4255   -5.4923   16.8207 C   0  0  0  0  0  0  0  0  0  0  0  0
   -3.1218   -4.1114   17.3425 C   0  0  2  0  0  0  0  0  0  0  0  0
   -2.1478   -4.1772   18.5102 C   0  0  1  0  0  0  0  0  0  0  0  0
   -1.0569   -5.1395   18.1075 C   0  0  0  0  0  0  0  0  0  0  0  0
   -1.6455   -2.7758   18.7257 C   0  0  0  0  0  0  0  0  0  0  0  0
   -2.8214   -2.0381   19.3438 C   0  0  2  0  0  0  0  0  0  0  0  0
   -4.0659   -2.1416   18.5610 C   0  0  2  0  0  0  0  0  0  0  0  0
   -4.3299   -3.3763   17.7935 C   0  0  1  0  0  0  0  0  0  0  0  0
   -5.2310   -3.0061   16.6548 C   0  0  0  0  0  0  0  0  0  0  0  0
   -6.3364   -3.6172   16.3381 C   0  0  0  0  0  0  0  0  0  0  0  0
   -7.0920   -3.2443   15.1286 C   0  0  0  0  0  0  0  0  0  0  0  0
   -8.3385   -3.7848   14.9576 C   0  0  0  0  0  0  0  0  0  0  0  0
   -9.0710   -3.4535   13.8332 C   0  0  0  0  0  0  0  0  0  0  0  0
   -8.5740   -2.5887   12.8771 C   0  0  0  0  0  0  0  0  0  0  0  0
   -7.3112   -2.0763   13.1060 C   0  0  0  0  0  0  0  0  0  0  0  0
   -6.5978   -2.4088   14.2164 N   0  0  0  0  0  0  0  0  0  0  0  0
   -9.3719   -2.2555   11.6976 C   0  0  0  0  0  0  0  0  0  0  0  0
  -10.7459   -2.1501   11.8189 C   0  0  0  0  0  0  0  0  0  0  0  0
  -11.5473   -1.8341   10.7250 C   0  0  0  0  0  0  0  0  0  0  0  0
  -10.9972   -1.6161    9.4862 C   0  0  0  0  0  0  0  0  0  0  0  0
   -9.6154   -1.7233    9.3696 C   0  0  0  0  0  0  0  0  0  0  0  0
   -8.8233   -2.0361   10.4533 C   0  0  0  0  0  0  0  0  0  0  0  0
   -9.0508   -1.5077    8.1357 F   0  0  0  0  0  0  0  0  0  0  0  0
   -4.1049   -0.8863   17.7131 C   0  0  2  0  0  0  0  0  0  0  0  0
   -3.0454   -0.0687   18.1716 O   0  0  0  0  0  0  0  0  0  0  0  0
   -2.5161   -0.5849   19.3475 C   0  0  0  0  0  0  0  0  0  0  0  0
   -1.9021    0.0754   20.2267 O   0  0  0  0  0  0  0  0  0  0  0  0
   -5.3905   -0.1176   17.9004 C   0  0  0  0  0  0  0  0  0  0  0  0
  1  2  1  0
  2  3  1  0
  3  4  1  0
  4  5  2  0
  4  6  1  0
  7  6  1  6
  7  8  1  0
  8  9  1  0
 10  9  1  1
 10 11  1  0
 11 12  1  6
 11 13  1  0
 14 13  1  6
 14 15  1  0
 15 16  1  0
 16 17  1  6
 17 18  2  0
 18 19  1  0
 19 20  2  0
 20 21  1  0
 21 22  2  0
 22 23  1  0
 23 24  2  0
 22 25  1  0
 25 26  2  0
 26 27  1  0
 27 28  2  0
 28 29  1  0
 29 30  2  0
 29 31  1  0
 15 32  1  6
 32 33  1  0
 33 34  1  0
 34 35  2  0
 32 36  1  1
 12  7  1  0
 34 14  1  0
 16 10  1  0
 24 19  1  0
 30 25  1  0
M  END
$$$$
