
     RDKit          3D

 36 40  0  0  0  0  0  0  0  0999 V2000
    0.9087   -7.3179   21.3506 C   0  0  0  0  0  0  0  0  0  0  0  0
    0.4592   -5.8897   21.1714 C   0  0  0  0  0  0  0  0  0  0  0  0
   -0.6649   -5.9188   20.3017 O   0  0  0  0  0  0  0  0  0  0  0  0
   -1.1380   -4.7183   19.8072 C   0  0  0  0  0  0  0  0  0  0  0  0
   -0.6153   -3.6420   20.2043 O   0  0  0  0  0  0  0  0  0  0  0  0
   -2.1991   -4.6219   18.8590 N   0  0  0  0  0  0  0  0  0  0  0  0
   -2.3612   -3.4937   17.9984 C   0  0  2  0  0  0  0  0  0  0  0  0
   -3.6889   -2.8248   18.0823 C   0  0  0  0  0  0  0  0  0  0  0  0
   -4.5583   -2.9933   16.8655 C   0  0  0  0  0  0  0  0  0  0  0  0
   -3.8628   -2.6158   15.5827 C   0  0  2  0  0  0  0  0  0  0  0  0
   -2.3534   -2.5854   15.7751 C   0  0  1  0  0  0  0  0  0  0  0  0
   -1.9922   -3.8320   16.5456 C   0  0  0  0  0  0  0  0  0  0  0  0
   -1.7489   -2.5494   14.3983 C   0  0  0  0  0  0  0  0  0  0  0  0
   -2.0258   -1.1426   13.8949 C   0  0  2  0  0  0  0  0  0  0  0  0
   -3.4464   -0.7558   13.9631 C   0  0  2  0  0  0  0  0  0  0  0  0
   -4.2849   -1.2945   15.0540 C   0  0  1  0  0  0  0  0  0  0  0  0
   -5.7005   -1.3021   14.5624 C   0  0  0  0  0  0  0  0  0  0  0  0
   -6.2907   -2.3052   13.9783 C   0  0  0  0  0  0  0  0  0  0  0  0
   -7.7373   -2.2768   13.6958 C   0  0  0  0  0  0  0  0  0  0  0  0
   -8.1406   -1.8828   12.4479 C   0  0  0  0  0  0  0  0  0  0  0  0
   -9.4906   -1.8465   12.1536 C   0  0  0  0  0  0  0  0  0  0  0  0
  -10.4432   -2.1989   13.0903 C   0  0  0  0  0  0  0  0  0  0  0  0
   -9.9741   -2.5875   14.3307 C   0  0  0  0  0  0  0  0  0  0  0  0
   -8.6426   -2.6198   14.6108 N   0  0  0  0  0  0  0  0  0  0  0  0
  -11.8649   -2.1515   12.7505 C   0  0  0  0  0  0  0  0  0  0  0  0
  -12.2449   -2.2205   11.4221 C   0  0  0  0  0  0  0  0  0  0  0  0
  -13.5860   -2.1804   11.0495 C   0  0  0  0  0  0  0  0  0  0  0  0
  -14.5777   -2.0706   11.9924 C   0  0  0  0  0  0  0  0  0  0  0  0
  -14.1904   -2.0015   13.3264 C   0  0  0  0  0  0  0  0  0  0  0  0
  -12.8626   -2.0414   13.6938 C   0  0  0  0  0  0  0  0  0  0  0  0
  -15.1723   -1.8913   14.2812 F   0  0  0  0  0  0  0  0  0  0  0  0
   -4.0002   -1.0408   12.5818 C   0  0  2  0  0  0  0  0  0  0  0  0
   -2.8876   -1.3671   11.7713 O   0  0  0  0  0  0  0  0  0  0  0  0
   -1.7055   -1.0895   12.4459 C   0  0  0  0  0  0  0  0  0  0  0  0
   -0.5943   -0.8444   11.9066 O   0  0  0  0  0  0  0  0  0  0  0  0
   -4.6660    0.1724   11.9786 C   0  0  0  0  0  0  0  0  0  0  0  0
  1  2  1  0
  2  3  1  0
  3  4  1  0
  4  5  2  0
  4  6  1  0
  7  6  1  1
  7  8  1  0
  8  9  1  0
 10  9  1  1
 10 11  1  0
 11 12  1  6
 11 13  1  0
 14 13  1  6
 14 15  1  0
 15 16  1  0
 16 17  1  6
 17 18  2  0
 18 19  1  0
 19 20  2  0
 20 21  1  0
 21 22  2  0
 22 23  1  0
 23 24  2  0
 22 25  1  0
 25 26  2  0
 26 27  1  0
 27 28  2  0
 28 29  1  0
 29 30  2  0
 29 31  1  0
 15 32  1  6
 32 33  1  0
 33 34  1  0
 34 35  2  0
 32 36  1  6
 12  7  1  0
 34 14  1  0
 16 10  1  0
 24 19  1  0
 30 25  1  0
M  END
$$$$
