
     RDKit          3D

 36 40  0  0  0  0  0  0  0  0999 V2000
    1.0989  -10.3304   17.1000 C   0  0  0  0  0  0  0  0  0  0  0  0
   -0.2862   -9.9448   17.5547 C   0  0  0  0  0  0  0  0  0  0  0  0
   -0.1532   -8.7443   18.3040 O   0  0  0  0  0  0  0  0  0  0  0  0
   -1.2316   -7.8813   18.3498 C   0  0  0  0  0  0  0  0  0  0  0  0
   -2.3338   -8.2993   18.7969 O   0  0  0  0  0  0  0  0  0  0  0  0
   -1.1718   -6.5243   17.9149 N   0  0  0  0  0  0  0  0  0  0  0  0
   -2.1681   -5.5613   18.2613 C   0  0  2  0  0  0  0  0  0  0  0  0
   -3.5216   -5.8278   17.7007 C   0  0  0  0  0  0  0  0  0  0  0  0
   -3.9631   -4.8640   16.6324 C   0  0  0  0  0  0  0  0  0  0  0  0
   -3.8452   -3.4207   17.0502 C   0  0  2  0  0  0  0  0  0  0  0  0
   -2.9147   -3.2787   18.2463 C   0  0  1  0  0  0  0  0  0  0  0  0
   -1.7031   -4.1295   17.9529 C   0  0  0  0  0  0  0  0  0  0  0  0
   -2.5907   -1.8144   18.3627 C   0  0  0  0  0  0  0  0  0  0  0  0
   -3.8682   -1.1798   18.8864 C   0  0  2  0  0  0  0  0  0  0  0  0
   -5.0614   -1.4927   18.0798 C   0  0  2  0  0  0  0  0  0  0  0  0
   -5.1481   -2.8053   17.4067 C   0  0  1  0  0  0  0  0  0  0  0  0
   -6.0434   -2.6349   16.2171 C   0  0  0  0  0  0  0  0  0  0  0  0
   -5.7189   -2.0330   15.1089 C   0  0  0  0  0  0  0  0  0  0  0  0
   -6.5429   -2.1781   13.8951 C   0  0  0  0  0  0  0  0  0  0  0  0
   -7.9047   -2.1680   14.0381 C   0  0  0  0  0  0  0  0  0  0  0  0
   -8.7034   -2.3018   12.9179 C   0  0  0  0  0  0  0  0  0  0  0  0
   -8.1587   -2.4457   11.6563 C   0  0  0  0  0  0  0  0  0  0  0  0
   -6.7791   -2.4483   11.5769 C   0  0  0  0  0  0  0  0  0  0  0  0
   -6.0013   -2.3159   12.6860 N   0  0  0  0  0  0  0  0  0  0  0  0
   -9.0285   -2.5846   10.4887 C   0  0  0  0  0  0  0  0  0  0  0  0
  -10.2592   -1.9531   10.4840 C   0  0  0  0  0  0  0  0  0  0  0  0
  -11.1213   -2.0551    9.3951 C   0  0  0  0  0  0  0  0  0  0  0  0
  -10.7757   -2.7886    8.2874 C   0  0  0  0  0  0  0  0  0  0  0  0
   -9.5372   -3.4215    8.2972 C   0  0  0  0  0  0  0  0  0  0  0  0
   -8.6850   -3.3197    9.3756 C   0  0  0  0  0  0  0  0  0  0  0  0
   -9.1779   -4.1592    7.1951 F   0  0  0  0  0  0  0  0  0  0  0  0
   -5.2173   -0.3197   17.1332 C   0  0  2  0  0  0  0  0  0  0  0  0
   -4.2802    0.6528   17.5542 O   0  0  0  0  0  0  0  0  0  0  0  0
   -3.7379    0.2958   18.7822 C   0  0  0  0  0  0  0  0  0  0  0  0
   -3.2400    1.0907   19.6224 O   0  0  0  0  0  0  0  0  0  0  0  0
   -6.5912    0.2994   17.2221 C   0  0  0  0  0  0  0  0  0  0  0  0
  1  2  1  0
  2  3  1  0
  3  4  1  0
  4  5  2  0
  4  6  1  0
  7  6  1  6
  7  8  1  0
  8  9  1  0
 10  9  1  1
 10 11  1  0
 11 12  1  6
 11 13  1  0
 14 13  1  6
 14 15  1  0
 15 16  1  0
 16 17  1  6
 17 18  2  0
 18 19  1  0
 19 20  2  0
 20 21  1  0
 21 22  2  0
 22 23  1  0
 23 24  2  0
 22 25  1  0
 25 26  2  0
 26 27  1  0
 27 28  2  0
 28 29  1  0
 29 30  2  0
 29 31  1  0
 15 32  1  6
 32 33  1  0
 33 34  1  0
 34 35  2  0
 32 36  1  1
 12  7  1  0
 34 14  1  0
 16 10  1  0
 24 19  1  0
 30 25  1  0
M  END
$$$$
