
     RDKit          3D

 25 28  0  0  0  0  0  0  0  0999 V2000
    1.7714    0.5404    6.1821 C   0  0  0  0  0  0  0  0  0  0  0  0
    2.9525    0.1251    6.7516 C   0  0  0  0  0  0  0  0  0  0  0  0
    3.1766    0.8887    7.7851 O   0  0  0  0  0  0  0  0  0  0  0  0
    2.2493    1.7904    7.9702 C   0  0  0  0  0  0  0  0  0  0  0  0
    1.3301    1.5927    6.9547 C   0  0  0  0  0  0  0  0  0  0  0  0
    2.1500    2.8119    9.0062 C   0  0  0  0  0  0  0  0  0  0  0  0
    2.8548    2.9754   10.1395 N   0  0  0  0  0  0  0  0  0  0  0  0
    2.4464    4.0408   10.8106 N   0  0  0  0  0  0  0  0  0  0  0  0
    2.8368    4.6066   11.9824 C   0  0  0  0  0  0  0  0  0  0  0  0
    2.2154    5.7169   12.4190 N   0  0  0  0  0  0  0  0  0  0  0  0
    1.2120    6.2883   11.7260 C   0  0  0  0  0  0  0  0  0  0  0  0
    0.8581    5.6943   10.5711 N   0  0  0  0  0  0  0  0  0  0  0  0
    1.4509    4.5904   10.1034 C   0  0  0  0  0  0  0  0  0  0  0  0
    1.2650    3.8468    9.0027 N   0  0  0  0  0  0  0  0  0  0  0  0
    0.5540    7.4589   12.1824 N   0  0  0  0  0  0  0  0  0  0  0  0
    0.5990    7.8343   13.5616 C   0  0  0  0  0  0  0  0  0  0  0  0
    1.4500    9.0298   13.8351 C   0  0  0  0  0  0  0  0  0  0  0  0
    2.4040    8.6885   14.9221 C   0  0  0  0  0  0  0  0  0  0  0  0
    3.7467    8.6137   14.6141 C   0  0  0  0  0  0  0  0  0  0  0  0
    4.7030    8.3038   15.5579 C   0  0  0  0  0  0  0  0  0  0  0  0
    4.2632    8.0663   16.8468 C   0  0  0  0  0  0  0  0  0  0  0  0
    2.9220    8.1347   17.1835 C   0  0  0  0  0  0  0  0  0  0  0  0
    1.9845    8.4457   16.2254 C   0  0  0  0  0  0  0  0  0  0  0  0
    5.1584    7.7509   17.8451 O   0  0  0  0  0  0  0  0  0  0  0  0
    3.8989    4.0153   12.7312 N   0  0  0  0  0  0  0  0  0  0  0  0
  1  2  2  0
  2  3  1  0
  3  4  1  0
  4  5  2  0
  4  6  1  0
  6  7  2  0
  7  8  1  0
  8  9  1  0
  9 10  2  0
 10 11  1  0
 11 12  2  0
 12 13  1  0
 13 14  2  0
 11 15  1  0
 15 16  1  0
 16 17  1  0
 17 18  1  0
 18 19  2  0
 19 20  1  0
 20 21  2  0
 21 22  1  0
 22 23  2  0
 21 24  1  0
  9 25  1  0
  5  1  1  0
 14  6  1  0
 13  8  1  0
 23 18  1  0
M  END
$$$$
