
     RDKit          3D

 25 28  0  0  0  0  0  0  0  0999 V2000
    0.1025    1.6329    6.3698 C   0  0  0  0  0  0  0  0  0  0  0  0
    1.0803    0.6945    6.6044 C   0  0  0  0  0  0  0  0  0  0  0  0
    1.7615    1.0926    7.6432 O   0  0  0  0  0  0  0  0  0  0  0  0
    1.3324    2.2231    8.1383 C   0  0  0  0  0  0  0  0  0  0  0  0
    0.2649    2.5972    7.3409 C   0  0  0  0  0  0  0  0  0  0  0  0
    1.8307    2.9768    9.2830 C   0  0  0  0  0  0  0  0  0  0  0  0
    2.6683    2.6115   10.2692 N   0  0  0  0  0  0  0  0  0  0  0  0
    2.8674    3.6031   11.1233 N   0  0  0  0  0  0  0  0  0  0  0  0
    3.6118    3.7203   12.2537 C   0  0  0  0  0  0  0  0  0  0  0  0
    3.6134    4.8857   12.9256 N   0  0  0  0  0  0  0  0  0  0  0  0
    2.8953    5.9462   12.5096 C   0  0  0  0  0  0  0  0  0  0  0  0
    2.1727    5.7855   11.3854 N   0  0  0  0  0  0  0  0  0  0  0  0
    2.1448    4.6437   10.6895 C   0  0  0  0  0  0  0  0  0  0  0  0
    1.5106    4.2691    9.5685 N   0  0  0  0  0  0  0  0  0  0  0  0
    2.8940    7.1768   13.2147 N   0  0  0  0  0  0  0  0  0  0  0  0
    2.0329    8.2476   12.8182 C   0  0  0  0  0  0  0  0  0  0  0  0
    0.7941    8.3641   13.6430 C   0  0  0  0  0  0  0  0  0  0  0  0
    1.1423    9.0373   14.9211 C   0  0  0  0  0  0  0  0  0  0  0  0
    0.6940    8.4761   16.0990 C   0  0  0  0  0  0  0  0  0  0  0  0
    0.9687    9.0312   17.3310 C   0  0  0  0  0  0  0  0  0  0  0  0
    1.7221   10.1902   17.3465 C   0  0  0  0  0  0  0  0  0  0  0  0
    2.1847   10.7746   16.1798 C   0  0  0  0  0  0  0  0  0  0  0  0
    1.8986   10.2034   14.9610 C   0  0  0  0  0  0  0  0  0  0  0  0
    2.0378   10.8041   18.5386 O   0  0  0  0  0  0  0  0  0  0  0  0
    4.3798    2.6067   12.7105 N   0  0  0  0  0  0  0  0  0  0  0  0
  1  2  2  0
  2  3  1  0
  3  4  1  0
  4  5  2  0
  4  6  1  0
  6  7  2  0
  7  8  1  0
  8  9  1  0
  9 10  2  0
 10 11  1  0
 11 12  2  0
 12 13  1  0
 13 14  2  0
 11 15  1  0
 15 16  1  0
 16 17  1  0
 17 18  1  0
 18 19  2  0
 19 20  1  0
 20 21  2  0
 21 22  1  0
 22 23  2  0
 21 24  1  0
  9 25  1  0
  5  1  1  0
 14  6  1  0
 13  8  1  0
 23 18  1  0
M  END
$$$$
