
     RDKit          3D

 25 28  0  0  0  0  0  0  0  0999 V2000
    1.7655    1.6449    6.1418 C   0  0  0  0  0  0  0  0  0  0  0  0
    0.8852    2.6793    5.9254 C   0  0  0  0  0  0  0  0  0  0  0  0
    0.9302    3.4551    6.9731 O   0  0  0  0  0  0  0  0  0  0  0  0
    1.7663    3.0388    7.8868 C   0  0  0  0  0  0  0  0  0  0  0  0
    2.3202    1.8754    7.3820 C   0  0  0  0  0  0  0  0  0  0  0  0
    2.0886    3.6305    9.1802 C   0  0  0  0  0  0  0  0  0  0  0  0
    3.0040    3.2739   10.0980 N   0  0  0  0  0  0  0  0  0  0  0  0
    2.9747    4.0819   11.1461 N   0  0  0  0  0  0  0  0  0  0  0  0
    3.6871    4.1308   12.3018 C   0  0  0  0  0  0  0  0  0  0  0  0
    3.4219    5.0956   13.2009 N   0  0  0  0  0  0  0  0  0  0  0  0
    2.4660    6.0202   12.9892 C   0  0  0  0  0  0  0  0  0  0  0  0
    1.7852    5.9340   11.8312 N   0  0  0  0  0  0  0  0  0  0  0  0
    2.0189    4.9904   10.9126 C   0  0  0  0  0  0  0  0  0  0  0  0
    1.4748    4.7213    9.7165 N   0  0  0  0  0  0  0  0  0  0  0  0
    2.1829    7.0392   13.9342 N   0  0  0  0  0  0  0  0  0  0  0  0
    1.3191    8.1289   13.6002 C   0  0  0  0  0  0  0  0  0  0  0  0
    1.6595    9.4052   14.2957 C   0  0  0  0  0  0  0  0  0  0  0  0
    1.2535   10.5380   13.4239 C   0  0  0  0  0  0  0  0  0  0  0  0
    1.5410   10.4619   12.0768 C   0  0  0  0  0  0  0  0  0  0  0  0
    1.2021   11.4649   11.1933 C   0  0  0  0  0  0  0  0  0  0  0  0
    0.5529   12.5695   11.7123 C   0  0  0  0  0  0  0  0  0  0  0  0
    0.2522   12.6719   13.0599 C   0  0  0  0  0  0  0  0  0  0  0  0
    0.5997   11.6587   13.9238 C   0  0  0  0  0  0  0  0  0  0  0  0
    0.1820   13.6128   10.8928 O   0  0  0  0  0  0  0  0  0  0  0  0
    4.7047    3.1590   12.5441 N   0  0  0  0  0  0  0  0  0  0  0  0
  1  2  2  0
  2  3  1  0
  3  4  1  0
  4  5  2  0
  4  6  1  0
  6  7  2  0
  7  8  1  0
  8  9  1  0
  9 10  2  0
 10 11  1  0
 11 12  2  0
 12 13  1  0
 13 14  2  0
 11 15  1  0
 15 16  1  0
 16 17  1  0
 17 18  1  0
 18 19  2  0
 19 20  1  0
 20 21  2  0
 21 22  1  0
 22 23  2  0
 21 24  1  0
  9 25  1  0
  5  1  1  0
 14  6  1  0
 13  8  1  0
 23 18  1  0
M  END
$$$$
