
     RDKit          3D

 25 28  0  0  0  0  0  0  0  0999 V2000
    2.0273    0.5784    6.2433 C   0  0  0  0  0  0  0  0  0  0  0  0
    3.1980    0.1905    6.8523 C   0  0  0  0  0  0  0  0  0  0  0  0
    3.3562    0.9414    7.9071 O   0  0  0  0  0  0  0  0  0  0  0  0
    2.3933    1.8093    8.0707 C   0  0  0  0  0  0  0  0  0  0  0  0
    1.5217    1.6014    7.0160 C   0  0  0  0  0  0  0  0  0  0  0  0
    2.2200    2.8076    9.1196 C   0  0  0  0  0  0  0  0  0  0  0  0
    2.8871    2.9843   10.2734 N   0  0  0  0  0  0  0  0  0  0  0  0
    2.4125    4.0183   10.9502 N   0  0  0  0  0  0  0  0  0  0  0  0
    2.7460    4.5817   12.1405 C   0  0  0  0  0  0  0  0  0  0  0  0
    2.0625    5.6546   12.5779 N   0  0  0  0  0  0  0  0  0  0  0  0
    1.0516    6.1906   11.8677 C   0  0  0  0  0  0  0  0  0  0  0  0
    0.7555    5.6005   10.6947 N   0  0  0  0  0  0  0  0  0  0  0  0
    1.4109    4.5332   10.2256 C   0  0  0  0  0  0  0  0  0  0  0  0
    1.2881    3.8004    9.1089 N   0  0  0  0  0  0  0  0  0  0  0  0
    0.3283    7.3217   12.3248 N   0  0  0  0  0  0  0  0  0  0  0  0
    0.6932    7.9832   13.5391 C   0  0  0  0  0  0  0  0  0  0  0  0
    1.9169    8.8302   13.4218 C   0  0  0  0  0  0  0  0  0  0  0  0
    2.6957    8.7074   14.6814 C   0  0  0  0  0  0  0  0  0  0  0  0
    2.0105    8.7303   15.8786 C   0  0  0  0  0  0  0  0  0  0  0  0
    2.6498    8.6227   17.0956 C   0  0  0  0  0  0  0  0  0  0  0  0
    4.0256    8.4887   17.0754 C   0  0  0  0  0  0  0  0  0  0  0  0
    4.7381    8.4628   15.8886 C   0  0  0  0  0  0  0  0  0  0  0  0
    4.0795    8.5718   14.6853 C   0  0  0  0  0  0  0  0  0  0  0  0
    4.7353    8.3758   18.2506 O   0  0  0  0  0  0  0  0  0  0  0  0
    3.8149    4.0275   12.9078 N   0  0  0  0  0  0  0  0  0  0  0  0
  1  2  2  0
  2  3  1  0
  3  4  1  0
  4  5  2  0
  4  6  1  0
  6  7  2  0
  7  8  1  0
  8  9  1  0
  9 10  2  0
 10 11  1  0
 11 12  2  0
 12 13  1  0
 13 14  2  0
 11 15  1  0
 15 16  1  0
 16 17  1  0
 17 18  1  0
 18 19  2  0
 19 20  1  0
 20 21  2  0
 21 22  1  0
 22 23  2  0
 21 24  1  0
  9 25  1  0
  5  1  1  0
 14  6  1  0
 13  8  1  0
 23 18  1  0
M  END
$$$$
