
     RDKit          3D

 25 28  0  0  0  0  0  0  0  0999 V2000
    2.4404   -0.0455    6.5922 C   0  0  0  0  0  0  0  0  0  0  0  0
    2.1752    0.9903    5.7270 C   0  0  0  0  0  0  0  0  0  0  0  0
    2.0454    2.0729    6.4431 O   0  0  0  0  0  0  0  0  0  0  0  0
    2.1995    1.8649    7.7238 C   0  0  0  0  0  0  0  0  0  0  0  0
    2.4550    0.5109    7.8529 C   0  0  0  0  0  0  0  0  0  0  0  0
    2.1288    2.8155    8.8275 C   0  0  0  0  0  0  0  0  0  0  0  0
    2.8170    2.8641    9.9814 N   0  0  0  0  0  0  0  0  0  0  0  0
    2.4474    3.8993   10.7189 N   0  0  0  0  0  0  0  0  0  0  0  0
    2.8406    4.3619   11.9343 C   0  0  0  0  0  0  0  0  0  0  0  0
    2.2652    5.4689   12.4374 N   0  0  0  0  0  0  0  0  0  0  0  0
    1.3056    6.1368   11.7691 C   0  0  0  0  0  0  0  0  0  0  0  0
    0.9471    5.6433   10.5692 N   0  0  0  0  0  0  0  0  0  0  0  0
    1.4948    4.5462   10.0351 C   0  0  0  0  0  0  0  0  0  0  0  0
    1.2957    3.8913    8.8817 N   0  0  0  0  0  0  0  0  0  0  0  0
    0.6963    7.3044   12.2955 N   0  0  0  0  0  0  0  0  0  0  0  0
    1.1452    7.8728   13.5287 C   0  0  0  0  0  0  0  0  0  0  0  0
    2.5206    8.4493   13.4632 C   0  0  0  0  0  0  0  0  0  0  0  0
    3.0339    8.5986   14.8497 C   0  0  0  0  0  0  0  0  0  0  0  0
    4.3375    8.2280   15.1078 C   0  0  0  0  0  0  0  0  0  0  0  0
    4.8981    8.3316   16.3633 C   0  0  0  0  0  0  0  0  0  0  0  0
    4.0954    8.8284   17.3732 C   0  0  0  0  0  0  0  0  0  0  0  0
    2.7841    9.2077   17.1422 C   0  0  0  0  0  0  0  0  0  0  0  0
    2.2449    9.0957   15.8811 C   0  0  0  0  0  0  0  0  0  0  0  0
    4.5839    8.9616   18.6543 O   0  0  0  0  0  0  0  0  0  0  0  0
    3.8566    3.6672   12.6578 N   0  0  0  0  0  0  0  0  0  0  0  0
  1  2  2  0
  2  3  1  0
  3  4  1  0
  4  5  2  0
  4  6  1  0
  6  7  2  0
  7  8  1  0
  8  9  1  0
  9 10  2  0
 10 11  1  0
 11 12  2  0
 12 13  1  0
 13 14  2  0
 11 15  1  0
 15 16  1  0
 16 17  1  0
 17 18  1  0
 18 19  2  0
 19 20  1  0
 20 21  2  0
 21 22  1  0
 22 23  2  0
 21 24  1  0
  9 25  1  0
  5  1  1  0
 14  6  1  0
 13  8  1  0
 23 18  1  0
M  END
$$$$
