
     RDKit          3D

 25 28  0  0  0  0  0  0  0  0999 V2000
    1.7303    1.0349    5.8980 C   0  0  0  0  0  0  0  0  0  0  0  0
    2.9318    0.5383    6.3470 C   0  0  0  0  0  0  0  0  0  0  0  0
    3.2129    1.1494    7.4647 O   0  0  0  0  0  0  0  0  0  0  0  0
    2.3058    2.0211    7.8175 C   0  0  0  0  0  0  0  0  0  0  0  0
    1.3378    1.9714    6.8296 C   0  0  0  0  0  0  0  0  0  0  0  0
    2.2670    2.8889    8.9889 C   0  0  0  0  0  0  0  0  0  0  0  0
    3.0204    2.8841   10.1024 N   0  0  0  0  0  0  0  0  0  0  0  0
    2.6586    3.8499   10.9323 N   0  0  0  0  0  0  0  0  0  0  0  0
    3.1066    4.2418   12.1535 C   0  0  0  0  0  0  0  0  0  0  0  0
    2.5231    5.2873   12.7668 N   0  0  0  0  0  0  0  0  0  0  0  0
    1.5023    5.9615   12.2039 C   0  0  0  0  0  0  0  0  0  0  0  0
    1.0909    5.5389   10.9939 N   0  0  0  0  0  0  0  0  0  0  0  0
    1.6447    4.5045   10.3520 C   0  0  0  0  0  0  0  0  0  0  0  0
    1.4008    3.9242    9.1676 N   0  0  0  0  0  0  0  0  0  0  0  0
    0.8841    7.0643   12.8468 N   0  0  0  0  0  0  0  0  0  0  0  0
    1.3075    7.4868   14.1458 C   0  0  0  0  0  0  0  0  0  0  0  0
    1.2118    8.9606   14.3630 C   0  0  0  0  0  0  0  0  0  0  0  0
    2.1535    9.3374   15.4489 C   0  0  0  0  0  0  0  0  0  0  0  0
    2.4172   10.6766   15.6504 C   0  0  0  0  0  0  0  0  0  0  0  0
    3.2769   11.1185   16.6336 C   0  0  0  0  0  0  0  0  0  0  0  0
    3.8768   10.1571   17.4254 C   0  0  0  0  0  0  0  0  0  0  0  0
    3.6303    8.8067   17.2452 C   0  0  0  0  0  0  0  0  0  0  0  0
    2.7684    8.3880   16.2575 C   0  0  0  0  0  0  0  0  0  0  0  0
    4.7479   10.5203   18.4288 O   0  0  0  0  0  0  0  0  0  0  0  0
    4.1881    3.5393   12.7663 N   0  0  0  0  0  0  0  0  0  0  0  0
  1  2  2  0
  2  3  1  0
  3  4  1  0
  4  5  2  0
  4  6  1  0
  6  7  2  0
  7  8  1  0
  8  9  1  0
  9 10  2  0
 10 11  1  0
 11 12  2  0
 12 13  1  0
 13 14  2  0
 11 15  1  0
 15 16  1  0
 16 17  1  0
 17 18  1  0
 18 19  2  0
 19 20  1  0
 20 21  2  0
 21 22  1  0
 22 23  2  0
 21 24  1  0
  9 25  1  0
  5  1  1  0
 14  6  1  0
 13  8  1  0
 23 18  1  0
M  END
$$$$
