
     RDKit          3D

 25 28  0  0  0  0  0  0  0  0999 V2000
    0.3327    1.4384    7.0842 C   0  0  0  0  0  0  0  0  0  0  0  0
    1.5384    0.7889    7.2117 C   0  0  0  0  0  0  0  0  0  0  0  0
    2.2162    1.4041    8.1412 O   0  0  0  0  0  0  0  0  0  0  0  0
    1.5762    2.4185    8.6594 C   0  0  0  0  0  0  0  0  0  0  0  0
    0.3602    2.4674    8.0004 C   0  0  0  0  0  0  0  0  0  0  0  0
    2.0007    3.3379    9.7089 C   0  0  0  0  0  0  0  0  0  0  0  0
    2.9827    3.2266   10.6203 N   0  0  0  0  0  0  0  0  0  0  0  0
    3.0387    4.2947   11.4002 N   0  0  0  0  0  0  0  0  0  0  0  0
    3.8388    4.6443   12.4410 C   0  0  0  0  0  0  0  0  0  0  0  0
    3.6488    5.8277   13.0518 N   0  0  0  0  0  0  0  0  0  0  0  0
    2.6838    6.6818   12.6607 C   0  0  0  0  0  0  0  0  0  0  0  0
    1.9149    6.2949   11.6259 N   0  0  0  0  0  0  0  0  0  0  0  0
    2.0721    5.1272   10.9928 C   0  0  0  0  0  0  0  0  0  0  0  0
    1.4357    4.5505    9.9626 N   0  0  0  0  0  0  0  0  0  0  0  0
    2.4798    7.9305   13.3015 N   0  0  0  0  0  0  0  0  0  0  0  0
    1.1594    8.4066   13.5752 C   0  0  0  0  0  0  0  0  0  0  0  0
    1.0974    9.8615   13.9036 C   0  0  0  0  0  0  0  0  0  0  0  0
    0.4455   10.0164   15.2299 C   0  0  0  0  0  0  0  0  0  0  0  0
    0.1221    8.8765   15.9366 C   0  0  0  0  0  0  0  0  0  0  0  0
   -0.4842    8.9241   17.1741 C   0  0  0  0  0  0  0  0  0  0  0  0
   -0.7621   10.1751   17.6925 C   0  0  0  0  0  0  0  0  0  0  0  0
   -0.4484   11.3352   17.0049 C   0  0  0  0  0  0  0  0  0  0  0  0
    0.1565   11.2642   15.7710 C   0  0  0  0  0  0  0  0  0  0  0  0
   -1.3667   10.3044   18.9234 O   0  0  0  0  0  0  0  0  0  0  0  0
    4.8674    3.7518   12.8700 N   0  0  0  0  0  0  0  0  0  0  0  0
  1  2  2  0
  2  3  1  0
  3  4  1  0
  4  5  2  0
  4  6  1  0
  6  7  2  0
  7  8  1  0
  8  9  1  0
  9 10  2  0
 10 11  1  0
 11 12  2  0
 12 13  1  0
 13 14  2  0
 11 15  1  0
 15 16  1  0
 16 17  1  0
 17 18  1  0
 18 19  2  0
 19 20  1  0
 20 21  2  0
 21 22  1  0
 22 23  2  0
 21 24  1  0
  9 25  1  0
  5  1  1  0
 14  6  1  0
 13  8  1  0
 23 18  1  0
M  END
$$$$
