
     RDKit          3D

 25 28  0  0  0  0  0  0  0  0999 V2000
    1.8503    0.8500    7.0532 C   0  0  0  0  0  0  0  0  0  0  0  0
    3.0086    0.2813    7.5291 C   0  0  0  0  0  0  0  0  0  0  0  0
    3.3638    0.9504    8.5910 O   0  0  0  0  0  0  0  0  0  0  0  0
    2.5467    1.9279    8.8811 C   0  0  0  0  0  0  0  0  0  0  0  0
    1.5615    1.8900    7.9100 C   0  0  0  0  0  0  0  0  0  0  0  0
    2.6079    2.8858    9.9790 C   0  0  0  0  0  0  0  0  0  0  0  0
    3.3655    2.8913   11.0897 N   0  0  0  0  0  0  0  0  0  0  0  0
    3.1130    3.9529   11.8392 N   0  0  0  0  0  0  0  0  0  0  0  0
    3.6091    4.3921   13.0252 C   0  0  0  0  0  0  0  0  0  0  0  0
    3.1427    5.5386   13.5522 N   0  0  0  0  0  0  0  0  0  0  0  0
    2.1933    6.2687   12.9364 C   0  0  0  0  0  0  0  0  0  0  0  0
    1.7306    5.7962   11.7641 N   0  0  0  0  0  0  0  0  0  0  0  0
    2.1683    4.6614   11.2076 C   0  0  0  0  0  0  0  0  0  0  0  0
    1.8559    4.0170   10.0735 N   0  0  0  0  0  0  0  0  0  0  0  0
    1.6986    7.4780   13.4882 N   0  0  0  0  0  0  0  0  0  0  0  0
    0.7375    8.2667   12.7816 C   0  0  0  0  0  0  0  0  0  0  0  0
   -0.6002    8.3240   13.4417 C   0  0  0  0  0  0  0  0  0  0  0  0
   -1.6354    7.9678   12.4369 C   0  0  0  0  0  0  0  0  0  0  0  0
   -2.1553    6.6901   12.4585 C   0  0  0  0  0  0  0  0  0  0  0  0
   -3.1188    6.2715   11.5653 C   0  0  0  0  0  0  0  0  0  0  0  0
   -3.5543    7.1919   10.6303 C   0  0  0  0  0  0  0  0  0  0  0  0
   -3.0498    8.4804   10.5860 C   0  0  0  0  0  0  0  0  0  0  0  0
   -2.0885    8.8769   11.4874 C   0  0  0  0  0  0  0  0  0  0  0  0
   -4.5147    6.8486    9.7044 O   0  0  0  0  0  0  0  0  0  0  0  0
    4.6161    3.6316   13.6930 N   0  0  0  0  0  0  0  0  0  0  0  0
  1  2  2  0
  2  3  1  0
  3  4  1  0
  4  5  2  0
  4  6  1  0
  6  7  2  0
  7  8  1  0
  8  9  1  0
  9 10  2  0
 10 11  1  0
 11 12  2  0
 12 13  1  0
 13 14  2  0
 11 15  1  0
 15 16  1  0
 16 17  1  0
 17 18  1  0
 18 19  2  0
 19 20  1  0
 20 21  2  0
 21 22  1  0
 22 23  2  0
 21 24  1  0
  9 25  1  0
  5  1  1  0
 14  6  1  0
 13  8  1  0
 23 18  1  0
M  END
$$$$
