
     RDKit          3D

 25 28  0  0  0  0  0  0  0  0999 V2000
    1.6005    0.4885    6.4921 C   0  0  0  0  0  0  0  0  0  0  0  0
    2.8370    0.1085    6.9593 C   0  0  0  0  0  0  0  0  0  0  0  0
    3.1624    0.9329    7.9164 O   0  0  0  0  0  0  0  0  0  0  0  0
    2.2535    1.8438    8.1428 C   0  0  0  0  0  0  0  0  0  0  0  0
    1.2350    1.5852    7.2422 C   0  0  0  0  0  0  0  0  0  0  0  0
    2.2558    2.9257    9.1207 C   0  0  0  0  0  0  0  0  0  0  0  0
    3.0902    3.1724   10.1456 N   0  0  0  0  0  0  0  0  0  0  0  0
    2.7398    4.2697   10.7980 N   0  0  0  0  0  0  0  0  0  0  0  0
    3.2566    4.9145   11.8763 C   0  0  0  0  0  0  0  0  0  0  0  0
    2.6648    6.0380   12.3202 N   0  0  0  0  0  0  0  0  0  0  0  0
    1.5691    6.5464   11.7248 C   0  0  0  0  0  0  0  0  0  0  0  0
    1.0914    5.8753   10.6602 N   0  0  0  0  0  0  0  0  0  0  0  0
    1.6508    4.7557   10.1888 C   0  0  0  0  0  0  0  0  0  0  0  0
    1.3503    3.9417    9.1659 N   0  0  0  0  0  0  0  0  0  0  0  0
    0.9419    7.7306   12.1892 N   0  0  0  0  0  0  0  0  0  0  0  0
    1.5244    8.5039   13.2418 C   0  0  0  0  0  0  0  0  0  0  0  0
    1.2602    7.9620   14.6074 C   0  0  0  0  0  0  0  0  0  0  0  0
    2.2768    8.5176   15.5380 C   0  0  0  0  0  0  0  0  0  0  0  0
    2.6710    7.7464   16.6119 C   0  0  0  0  0  0  0  0  0  0  0  0
    3.6078    8.1801   17.5260 C   0  0  0  0  0  0  0  0  0  0  0  0
    4.1487    9.4366   17.3266 C   0  0  0  0  0  0  0  0  0  0  0  0
    3.7714   10.2314   16.2577 C   0  0  0  0  0  0  0  0  0  0  0  0
    2.8344    9.7784   15.3574 C   0  0  0  0  0  0  0  0  0  0  0  0
    5.0905    9.9396   18.1970 O   0  0  0  0  0  0  0  0  0  0  0  0
    4.4179    4.3907   12.5209 N   0  0  0  0  0  0  0  0  0  0  0  0
  1  2  2  0
  2  3  1  0
  3  4  1  0
  4  5  2  0
  4  6  1  0
  6  7  2  0
  7  8  1  0
  8  9  1  0
  9 10  2  0
 10 11  1  0
 11 12  2  0
 12 13  1  0
 13 14  2  0
 11 15  1  0
 15 16  1  0
 16 17  1  0
 17 18  1  0
 18 19  2  0
 19 20  1  0
 20 21  2  0
 21 22  1  0
 22 23  2  0
 21 24  1  0
  9 25  1  0
  5  1  1  0
 14  6  1  0
 13  8  1  0
 23 18  1  0
M  END
$$$$
