
     RDKit          3D

 25 28  0  0  0  0  0  0  0  0999 V2000
    1.1790    0.8473    6.2778 C   0  0  0  0  0  0  0  0  0  0  0  0
    2.4287    0.3967    6.6341 C   0  0  0  0  0  0  0  0  0  0  0  0
    2.8356    1.1271    7.6353 O   0  0  0  0  0  0  0  0  0  0  0  0
    1.9704    2.0383    7.9934 C   0  0  0  0  0  0  0  0  0  0  0  0
    0.8928    1.8845    7.1388 C   0  0  0  0  0  0  0  0  0  0  0  0
    2.0642    3.0317    9.0570 C   0  0  0  0  0  0  0  0  0  0  0  0
    2.9025    3.1098   10.1052 N   0  0  0  0  0  0  0  0  0  0  0  0
    2.6521    4.1800   10.8429 N   0  0  0  0  0  0  0  0  0  0  0  0
    3.2129    4.6803   11.9746 C   0  0  0  0  0  0  0  0  0  0  0  0
    2.7282    5.8177   12.5048 N   0  0  0  0  0  0  0  0  0  0  0  0
    1.6978    6.4796   11.9448 C   0  0  0  0  0  0  0  0  0  0  0  0
    1.1730    5.9482   10.8249 N   0  0  0  0  0  0  0  0  0  0  0  0
    1.6263    4.8202   10.2673 C   0  0  0  0  0  0  0  0  0  0  0  0
    1.2631    4.1260    9.1786 N   0  0  0  0  0  0  0  0  0  0  0  0
    1.1836    7.6790   12.5002 N   0  0  0  0  0  0  0  0  0  0  0  0
    1.8025    8.2836   13.6388 C   0  0  0  0  0  0  0  0  0  0  0  0
    1.6087    7.5217   14.9078 C   0  0  0  0  0  0  0  0  0  0  0  0
    2.5290    8.0766   15.9341 C   0  0  0  0  0  0  0  0  0  0  0  0
    3.2805    9.1864   15.6070 C   0  0  0  0  0  0  0  0  0  0  0  0
    4.1597    9.7688   16.4952 C   0  0  0  0  0  0  0  0  0  0  0  0
    4.2650    9.1928   17.7475 C   0  0  0  0  0  0  0  0  0  0  0  0
    3.5230    8.0791   18.1023 C   0  0  0  0  0  0  0  0  0  0  0  0
    2.6512    7.5141   17.1998 C   0  0  0  0  0  0  0  0  0  0  0  0
    5.1220    9.7175   18.6897 O   0  0  0  0  0  0  0  0  0  0  0  0
    4.3062    3.9925   12.5829 N   0  0  0  0  0  0  0  0  0  0  0  0
  1  2  2  0
  2  3  1  0
  3  4  1  0
  4  5  2  0
  4  6  1  0
  6  7  2  0
  7  8  1  0
  8  9  1  0
  9 10  2  0
 10 11  1  0
 11 12  2  0
 12 13  1  0
 13 14  2  0
 11 15  1  0
 15 16  1  0
 16 17  1  0
 17 18  1  0
 18 19  2  0
 19 20  1  0
 20 21  2  0
 21 22  1  0
 22 23  2  0
 21 24  1  0
  9 25  1  0
  5  1  1  0
 14  6  1  0
 13  8  1  0
 23 18  1  0
M  END
$$$$
