
     RDKit          3D

 25 28  0  0  0  0  0  0  0  0999 V2000
    2.7087    0.1908    6.2993 C   0  0  0  0  0  0  0  0  0  0  0  0
    1.6203    0.8477    5.7744 C   0  0  0  0  0  0  0  0  0  0  0  0
    1.2720    1.7698    6.6289 O   0  0  0  0  0  0  0  0  0  0  0  0
    2.0298    1.7987    7.6929 C   0  0  0  0  0  0  0  0  0  0  0  0
    2.9645    0.7944    7.5115 C   0  0  0  0  0  0  0  0  0  0  0  0
    1.9553    2.6773    8.8544 C   0  0  0  0  0  0  0  0  0  0  0  0
    2.6676    2.6770    9.9947 N   0  0  0  0  0  0  0  0  0  0  0  0
    2.2836    3.6530   10.8023 N   0  0  0  0  0  0  0  0  0  0  0  0
    2.6900    4.0525   12.0355 C   0  0  0  0  0  0  0  0  0  0  0  0
    2.0929    5.1080   12.6179 N   0  0  0  0  0  0  0  0  0  0  0  0
    1.0985    5.7848   12.0123 C   0  0  0  0  0  0  0  0  0  0  0  0
    0.7281    5.3544   10.7918 N   0  0  0  0  0  0  0  0  0  0  0  0
    1.2967    4.3100   10.1797 C   0  0  0  0  0  0  0  0  0  0  0  0
    1.0915    3.7208    8.9923 N   0  0  0  0  0  0  0  0  0  0  0  0
    0.4662    6.8981   12.6224 N   0  0  0  0  0  0  0  0  0  0  0  0
    1.1987    8.0938   12.9031 C   0  0  0  0  0  0  0  0  0  0  0  0
    0.9440    8.6534   14.2634 C   0  0  0  0  0  0  0  0  0  0  0  0
    2.1689    8.4687   15.0842 C   0  0  0  0  0  0  0  0  0  0  0  0
    3.3394    9.0585   14.6538 C   0  0  0  0  0  0  0  0  0  0  0  0
    4.5234    8.9409   15.3508 C   0  0  0  0  0  0  0  0  0  0  0  0
    4.4976    8.1985   16.5166 C   0  0  0  0  0  0  0  0  0  0  0  0
    3.3371    7.5959   16.9716 C   0  0  0  0  0  0  0  0  0  0  0  0
    2.1666    7.7264   16.2599 C   0  0  0  0  0  0  0  0  0  0  0  0
    5.6404    8.0352   17.2682 O   0  0  0  0  0  0  0  0  0  0  0  0
    3.7427    3.3474   12.6935 N   0  0  0  0  0  0  0  0  0  0  0  0
  1  2  2  0
  2  3  1  0
  3  4  1  0
  4  5  2  0
  4  6  1  0
  6  7  2  0
  7  8  1  0
  8  9  1  0
  9 10  2  0
 10 11  1  0
 11 12  2  0
 12 13  1  0
 13 14  2  0
 11 15  1  0
 15 16  1  0
 16 17  1  0
 17 18  1  0
 18 19  2  0
 19 20  1  0
 20 21  2  0
 21 22  1  0
 22 23  2  0
 21 24  1  0
  9 25  1  0
  5  1  1  0
 14  6  1  0
 13  8  1  0
 23 18  1  0
M  END
$$$$
