
     RDKit          3D

 25 28  0  0  0  0  0  0  0  0999 V2000
    1.1234    0.8732    6.3050 C   0  0  0  0  0  0  0  0  0  0  0  0
    2.3665    0.3885    6.6388 C   0  0  0  0  0  0  0  0  0  0  0  0
    2.8121    1.1084    7.6311 O   0  0  0  0  0  0  0  0  0  0  0  0
    1.9793    2.0437    8.0037 C   0  0  0  0  0  0  0  0  0  0  0  0
    0.8821    1.9189    7.1695 C   0  0  0  0  0  0  0  0  0  0  0  0
    2.1204    3.0354    9.0636 C   0  0  0  0  0  0  0  0  0  0  0  0
    3.0285    3.1335   10.0502 N   0  0  0  0  0  0  0  0  0  0  0  0
    2.8011    4.1933   10.8099 N   0  0  0  0  0  0  0  0  0  0  0  0
    3.4266    4.7052   11.9019 C   0  0  0  0  0  0  0  0  0  0  0  0
    2.9489    5.8262   12.4717 N   0  0  0  0  0  0  0  0  0  0  0  0
    1.8631    6.4606   11.9900 C   0  0  0  0  0  0  0  0  0  0  0  0
    1.2752    5.9186   10.9072 N   0  0  0  0  0  0  0  0  0  0  0  0
    1.7194    4.8062   10.3122 C   0  0  0  0  0  0  0  0  0  0  0  0
    1.2995    4.1060    9.2481 N   0  0  0  0  0  0  0  0  0  0  0  0
    1.3559    7.6427   12.5874 N   0  0  0  0  0  0  0  0  0  0  0  0
    2.2069    8.4999   13.3532 C   0  0  0  0  0  0  0  0  0  0  0  0
    3.1860    7.7696   14.2113 C   0  0  0  0  0  0  0  0  0  0  0  0
    2.9573    8.1644   15.6255 C   0  0  0  0  0  0  0  0  0  0  0  0
    4.0568    8.3721   16.4325 C   0  0  0  0  0  0  0  0  0  0  0  0
    3.9403    8.7403   17.7562 C   0  0  0  0  0  0  0  0  0  0  0  0
    2.6613    8.8973   18.2567 C   0  0  0  0  0  0  0  0  0  0  0  0
    1.5405    8.6954   17.4694 C   0  0  0  0  0  0  0  0  0  0  0  0
    1.6802    8.3282   16.1506 C   0  0  0  0  0  0  0  0  0  0  0  0
    2.4634    9.2638   19.5697 O   0  0  0  0  0  0  0  0  0  0  0  0
    4.5793    4.0466   12.4272 N   0  0  0  0  0  0  0  0  0  0  0  0
  1  2  2  0
  2  3  1  0
  3  4  1  0
  4  5  2  0
  4  6  1  0
  6  7  2  0
  7  8  1  0
  8  9  1  0
  9 10  2  0
 10 11  1  0
 11 12  2  0
 12 13  1  0
 13 14  2  0
 11 15  1  0
 15 16  1  0
 16 17  1  0
 17 18  1  0
 18 19  2  0
 19 20  1  0
 20 21  2  0
 21 22  1  0
 22 23  2  0
 21 24  1  0
  9 25  1  0
  5  1  1  0
 14  6  1  0
 13  8  1  0
 23 18  1  0
M  END
$$$$
