
     RDKit          3D

 25 28  0  0  0  0  0  0  0  0999 V2000
    1.7665    0.4643    5.9700 C   0  0  0  0  0  0  0  0  0  0  0  0
    2.8243   -0.1465    6.6021 C   0  0  0  0  0  0  0  0  0  0  0  0
    3.0765    0.5341    7.6860 O   0  0  0  0  0  0  0  0  0  0  0  0
    2.2811    1.5579    7.8482 C   0  0  0  0  0  0  0  0  0  0  0  0
    1.4260    1.5408    6.7602 C   0  0  0  0  0  0  0  0  0  0  0  0
    2.2525    2.5421    8.9239 C   0  0  0  0  0  0  0  0  0  0  0  0
    3.0109    2.6477   10.0290 N   0  0  0  0  0  0  0  0  0  0  0  0
    2.6583    3.6962   10.7562 N   0  0  0  0  0  0  0  0  0  0  0  0
    3.1141    4.2093   11.9287 C   0  0  0  0  0  0  0  0  0  0  0  0
    2.5393    5.3160   12.4330 N   0  0  0  0  0  0  0  0  0  0  0  0
    1.5198    5.9348   11.8075 C   0  0  0  0  0  0  0  0  0  0  0  0
    1.1006    5.3922   10.6492 N   0  0  0  0  0  0  0  0  0  0  0  0
    1.6455    4.2936   10.1154 C   0  0  0  0  0  0  0  0  0  0  0  0
    1.3931    3.5957    8.9981 N   0  0  0  0  0  0  0  0  0  0  0  0
    0.9108    7.1018   12.3354 N   0  0  0  0  0  0  0  0  0  0  0  0
    1.3769    7.6834   13.5560 C   0  0  0  0  0  0  0  0  0  0  0  0
    2.7142    8.3368   13.4421 C   0  0  0  0  0  0  0  0  0  0  0  0
    3.2864    8.4767   14.8063 C   0  0  0  0  0  0  0  0  0  0  0  0
    2.4958    9.0277   15.7936 C   0  0  0  0  0  0  0  0  0  0  0  0
    2.9427    9.1960   17.0871 C   0  0  0  0  0  0  0  0  0  0  0  0
    4.2331    8.7866   17.3667 C   0  0  0  0  0  0  0  0  0  0  0  0
    5.0481    8.2306   16.3953 C   0  0  0  0  0  0  0  0  0  0  0  0
    4.5814    8.0720   15.1105 C   0  0  0  0  0  0  0  0  0  0  0  0
    4.7512    8.9219   18.6359 O   0  0  0  0  0  0  0  0  0  0  0  0
    4.1942    3.5671   12.6065 N   0  0  0  0  0  0  0  0  0  0  0  0
  1  2  2  0
  2  3  1  0
  3  4  1  0
  4  5  2  0
  4  6  1  0
  6  7  2  0
  7  8  1  0
  8  9  1  0
  9 10  2  0
 10 11  1  0
 11 12  2  0
 12 13  1  0
 13 14  2  0
 11 15  1  0
 15 16  1  0
 16 17  1  0
 17 18  1  0
 18 19  2  0
 19 20  1  0
 20 21  2  0
 21 22  1  0
 22 23  2  0
 21 24  1  0
  9 25  1  0
  5  1  1  0
 14  6  1  0
 13  8  1  0
 23 18  1  0
M  END
$$$$
