
     RDKit          3D

 25 28  0  0  0  0  0  0  0  0999 V2000
    2.3824   10.7280   16.1034 C   0  0  0  0  0  0  0  0  0  0  0  0
    3.4722   10.0600   16.6112 C   0  0  0  0  0  0  0  0  0  0  0  0
    3.6060    8.9567   15.9283 O   0  0  0  0  0  0  0  0  0  0  0  0
    2.7005    8.8140   14.9972 C   0  0  0  0  0  0  0  0  0  0  0  0
    1.8975    9.9378   15.0838 C   0  0  0  0  0  0  0  0  0  0  0  0
    2.5235    7.7265   14.0419 C   0  0  0  0  0  0  0  0  0  0  0  0
    3.2114    6.5817   13.8871 N   0  0  0  0  0  0  0  0  0  0  0  0
    2.7238    5.8582   12.8917 N   0  0  0  0  0  0  0  0  0  0  0  0
    3.0684    4.6558   12.3613 C   0  0  0  0  0  0  0  0  0  0  0  0
    2.3656    4.1655   11.3244 N   0  0  0  0  0  0  0  0  0  0  0  0
    1.3245    4.8340   10.7926 C   0  0  0  0  0  0  0  0  0  0  0  0
    1.0184    6.0208   11.3491 N   0  0  0  0  0  0  0  0  0  0  0  0
    1.6923    6.5420   12.3801 C   0  0  0  0  0  0  0  0  0  0  0  0
    1.5646    7.6814   13.0762 N   0  0  0  0  0  0  0  0  0  0  0  0
    0.5807    4.3210    9.6994 N   0  0  0  0  0  0  0  0  0  0  0  0
    0.9580    3.0948    9.0674 C   0  0  0  0  0  0  0  0  0  0  0  0
    0.6086    3.0297    7.6176 C   0  0  0  0  0  0  0  0  0  0  0  0
    1.1818    1.7808    7.0519 C   0  0  0  0  0  0  0  0  0  0  0  0
    0.4952    1.1475    6.0365 C   0  0  0  0  0  0  0  0  0  0  0  0
    0.9514   -0.0150    5.4521 C   0  0  0  0  0  0  0  0  0  0  0  0
    2.1415   -0.5343    5.9264 C   0  0  0  0  0  0  0  0  0  0  0  0
    2.8509    0.0804    6.9441 C   0  0  0  0  0  0  0  0  0  0  0  0
    2.3770    1.2403    7.5131 C   0  0  0  0  0  0  0  0  0  0  0  0
    2.6618   -1.6929    5.3930 O   0  0  0  0  0  0  0  0  0  0  0  0
    4.1692    3.9322   12.9118 N   0  0  0  0  0  0  0  0  0  0  0  0
  1  2  2  0
  2  3  1  0
  3  4  1  0
  4  5  2  0
  4  6  1  0
  6  7  2  0
  7  8  1  0
  8  9  1  0
  9 10  2  0
 10 11  1  0
 11 12  2  0
 12 13  1  0
 13 14  2  0
 11 15  1  0
 15 16  1  0
 16 17  1  0
 17 18  1  0
 18 19  2  0
 19 20  1  0
 20 21  2  0
 21 22  1  0
 22 23  2  0
 21 24  1  0
  9 25  1  0
  5  1  1  0
 14  6  1  0
 13  8  1  0
 23 18  1  0
M  END
$$$$
