
     RDKit          3D

 25 28  0  0  0  0  0  0  0  0999 V2000
    2.4922   -0.3615    7.1038 C   0  0  0  0  0  0  0  0  0  0  0  0
    1.2874    0.0286    6.5672 C   0  0  0  0  0  0  0  0  0  0  0  0
    0.9576    1.1584    7.1295 O   0  0  0  0  0  0  0  0  0  0  0  0
    1.8346    1.5736    8.0046 C   0  0  0  0  0  0  0  0  0  0  0  0
    2.8349    0.6171    8.0116 C   0  0  0  0  0  0  0  0  0  0  0  0
    1.8175    2.7774    8.8276 C   0  0  0  0  0  0  0  0  0  0  0  0
    0.8825    3.7356    8.9509 N   0  0  0  0  0  0  0  0  0  0  0  0
    1.2590    4.6672    9.8128 N   0  0  0  0  0  0  0  0  0  0  0  0
    0.6733    5.8071   10.2635 C   0  0  0  0  0  0  0  0  0  0  0  0
    1.3190    6.5699   11.1639 N   0  0  0  0  0  0  0  0  0  0  0  0
    2.5355    6.2362   11.6353 C   0  0  0  0  0  0  0  0  0  0  0  0
    3.0780    5.0990   11.1615 N   0  0  0  0  0  0  0  0  0  0  0  0
    2.4684    4.3140   10.2665 C   0  0  0  0  0  0  0  0  0  0  0  0
    2.8148    3.1635    9.6704 N   0  0  0  0  0  0  0  0  0  0  0  0
    3.2199    7.0373   12.5847 N   0  0  0  0  0  0  0  0  0  0  0  0
    2.4979    7.8263   13.5340 C   0  0  0  0  0  0  0  0  0  0  0  0
    2.1679    7.1010   14.7963 C   0  0  0  0  0  0  0  0  0  0  0  0
    3.0375    7.6260   15.8809 C   0  0  0  0  0  0  0  0  0  0  0  0
    2.9175    7.0747   17.1398 C   0  0  0  0  0  0  0  0  0  0  0  0
    3.6826    7.4985   18.2058 C   0  0  0  0  0  0  0  0  0  0  0  0
    4.5906    8.5131   17.9663 C   0  0  0  0  0  0  0  0  0  0  0  0
    4.7317    9.0842   16.7130 C   0  0  0  0  0  0  0  0  0  0  0  0
    3.9575    8.6455   15.6632 C   0  0  0  0  0  0  0  0  0  0  0  0
    5.3908    8.9904   18.9808 O   0  0  0  0  0  0  0  0  0  0  0  0
   -0.6163    6.1775    9.7754 N   0  0  0  0  0  0  0  0  0  0  0  0
  1  2  2  0
  2  3  1  0
  3  4  1  0
  4  5  2  0
  4  6  1  0
  6  7  2  0
  7  8  1  0
  8  9  1  0
  9 10  2  0
 10 11  1  0
 11 12  2  0
 12 13  1  0
 13 14  2  0
 11 15  1  0
 15 16  1  0
 16 17  1  0
 17 18  1  0
 18 19  2  0
 19 20  1  0
 20 21  2  0
 21 22  1  0
 22 23  2  0
 21 24  1  0
  9 25  1  0
  5  1  1  0
 14  6  1  0
 13  8  1  0
 23 18  1  0
M  END
$$$$
