
     RDKit          3D

 25 28  0  0  0  0  0  0  0  0999 V2000
    1.1134    1.0247    6.7356 C   0  0  0  0  0  0  0  0  0  0  0  0
    2.3673    0.5123    6.9741 C   0  0  0  0  0  0  0  0  0  0  0  0
    2.8697    1.1660    7.9849 O   0  0  0  0  0  0  0  0  0  0  0  0
    2.0659    2.0814    8.4573 C   0  0  0  0  0  0  0  0  0  0  0  0
    0.9265    2.0159    7.6746 C   0  0  0  0  0  0  0  0  0  0  0  0
    2.2704    3.0040    9.5680 C   0  0  0  0  0  0  0  0  0  0  0  0
    3.2145    3.0203   10.5251 N   0  0  0  0  0  0  0  0  0  0  0  0
    3.0422    4.0381   11.3537 N   0  0  0  0  0  0  0  0  0  0  0  0
    3.7187    4.4679   12.4507 C   0  0  0  0  0  0  0  0  0  0  0  0
    3.2915    5.5643   13.1025 N   0  0  0  0  0  0  0  0  0  0  0  0
    2.2071    6.2532   12.6986 C   0  0  0  0  0  0  0  0  0  0  0  0
    1.5676    5.7918   11.6077 N   0  0  0  0  0  0  0  0  0  0  0  0
    1.9608    4.7063   10.9326 C   0  0  0  0  0  0  0  0  0  0  0  0
    1.4855    4.0817    9.8449 N   0  0  0  0  0  0  0  0  0  0  0  0
    1.7530    7.4097   13.3827 N   0  0  0  0  0  0  0  0  0  0  0  0
    0.5241    8.0426   13.0163 C   0  0  0  0  0  0  0  0  0  0  0  0
    0.2049    7.9461   11.5612 C   0  0  0  0  0  0  0  0  0  0  0  0
   -0.1773    9.2968   11.0736 C   0  0  0  0  0  0  0  0  0  0  0  0
   -1.3144    9.8815   11.5918 C   0  0  0  0  0  0  0  0  0  0  0  0
   -1.7450   11.1310   11.1986 C   0  0  0  0  0  0  0  0  0  0  0  0
   -0.9852   11.7903   10.2504 C   0  0  0  0  0  0  0  0  0  0  0  0
    0.1601   11.2271    9.7138 C   0  0  0  0  0  0  0  0  0  0  0  0
    0.5715    9.9786   10.1208 C   0  0  0  0  0  0  0  0  0  0  0  0
   -1.3508   13.0422    9.8072 O   0  0  0  0  0  0  0  0  0  0  0  0
    4.8708    3.7506   12.8941 N   0  0  0  0  0  0  0  0  0  0  0  0
  1  2  2  0
  2  3  1  0
  3  4  1  0
  4  5  2  0
  4  6  1  0
  6  7  2  0
  7  8  1  0
  8  9  1  0
  9 10  2  0
 10 11  1  0
 11 12  2  0
 12 13  1  0
 13 14  2  0
 11 15  1  0
 15 16  1  0
 16 17  1  0
 17 18  1  0
 18 19  2  0
 19 20  1  0
 20 21  2  0
 21 22  1  0
 22 23  2  0
 21 24  1  0
  9 25  1  0
  5  1  1  0
 14  6  1  0
 13  8  1  0
 23 18  1  0
M  END
$$$$
