
     RDKit          3D

 25 28  0  0  0  0  0  0  0  0999 V2000
    2.0752    0.4027    6.1894 C   0  0  0  0  0  0  0  0  0  0  0  0
    1.8294    1.4939    5.3890 C   0  0  0  0  0  0  0  0  0  0  0  0
    1.8191    2.5473    6.1584 O   0  0  0  0  0  0  0  0  0  0  0  0
    2.0368    2.2687    7.4162 C   0  0  0  0  0  0  0  0  0  0  0  0
    2.2057    0.8961    7.4695 C   0  0  0  0  0  0  0  0  0  0  0  0
    2.1000    3.1681    8.5624 C   0  0  0  0  0  0  0  0  0  0  0  0
    2.9144    3.1610    9.6321 N   0  0  0  0  0  0  0  0  0  0  0  0
    2.6400    4.1629   10.4525 N   0  0  0  0  0  0  0  0  0  0  0  0
    3.1721    4.5678   11.6352 C   0  0  0  0  0  0  0  0  0  0  0  0
    2.6675    5.6530   12.2494 N   0  0  0  0  0  0  0  0  0  0  0  0
    1.6449    6.3547   11.7247 C   0  0  0  0  0  0  0  0  0  0  0  0
    1.1487    5.9181   10.5521 N   0  0  0  0  0  0  0  0  0  0  0  0
    1.6225    4.8443    9.9107 C   0  0  0  0  0  0  0  0  0  0  0  0
    1.2884    4.2437    8.7589 N   0  0  0  0  0  0  0  0  0  0  0  0
    1.1097    7.4995   12.3687 N   0  0  0  0  0  0  0  0  0  0  0  0
    1.8506    8.1831   13.3830 C   0  0  0  0  0  0  0  0  0  0  0  0
    1.9561    7.4286   14.6667 C   0  0  0  0  0  0  0  0  0  0  0  0
    2.9607    8.1048   15.5279 C   0  0  0  0  0  0  0  0  0  0  0  0
    3.5859    9.2338   15.0404 C   0  0  0  0  0  0  0  0  0  0  0  0
    4.5303    9.9257   15.7688 C   0  0  0  0  0  0  0  0  0  0  0  0
    4.8352    9.4413   17.0271 C   0  0  0  0  0  0  0  0  0  0  0  0
    4.2232    8.3107   17.5410 C   0  0  0  0  0  0  0  0  0  0  0  0
    3.2833    7.6356   16.7965 C   0  0  0  0  0  0  0  0  0  0  0  0
    5.7686   10.0779   17.8152 O   0  0  0  0  0  0  0  0  0  0  0  0
    4.2569    3.8365   12.2071 N   0  0  0  0  0  0  0  0  0  0  0  0
  1  2  2  0
  2  3  1  0
  3  4  1  0
  4  5  2  0
  4  6  1  0
  6  7  2  0
  7  8  1  0
  8  9  1  0
  9 10  2  0
 10 11  1  0
 11 12  2  0
 12 13  1  0
 13 14  2  0
 11 15  1  0
 15 16  1  0
 16 17  1  0
 17 18  1  0
 18 19  2  0
 19 20  1  0
 20 21  2  0
 21 22  1  0
 22 23  2  0
 21 24  1  0
  9 25  1  0
  5  1  1  0
 14  6  1  0
 13  8  1  0
 23 18  1  0
M  END
$$$$
