
     RDKit          3D

 25 28  0  0  0  0  0  0  0  0999 V2000
    1.3888    0.5488    6.5329 C   0  0  0  0  0  0  0  0  0  0  0  0
    0.8796    1.6879    5.9542 C   0  0  0  0  0  0  0  0  0  0  0  0
    0.9511    2.6414    6.8415 O   0  0  0  0  0  0  0  0  0  0  0  0
    1.4659    2.2507    7.9772 C   0  0  0  0  0  0  0  0  0  0  0  0
    1.7582    0.9083    7.8110 C   0  0  0  0  0  0  0  0  0  0  0  0
    1.7056    3.0185    9.1936 C   0  0  0  0  0  0  0  0  0  0  0  0
    2.4040    2.7049   10.2988 N   0  0  0  0  0  0  0  0  0  0  0  0
    2.3748    3.6902   11.1823 N   0  0  0  0  0  0  0  0  0  0  0  0
    2.9156    3.8457   12.4188 C   0  0  0  0  0  0  0  0  0  0  0  0
    2.7059    4.9913   13.0921 N   0  0  0  0  0  0  0  0  0  0  0  0
    1.9719    5.9949   12.5748 C   0  0  0  0  0  0  0  0  0  0  0  0
    1.4555    5.7978   11.3474 N   0  0  0  0  0  0  0  0  0  0  0  0
    1.6411    4.6740   10.6464 C   0  0  0  0  0  0  0  0  0  0  0  0
    1.2301    4.2714    9.4348 N   0  0  0  0  0  0  0  0  0  0  0  0
    1.7482    7.2044   13.2809 N   0  0  0  0  0  0  0  0  0  0  0  0
    1.4179    8.4091   12.5846 C   0  0  0  0  0  0  0  0  0  0  0  0
   -0.0212    8.5102   12.2007 C   0  0  0  0  0  0  0  0  0  0  0  0
   -0.3915    9.9480   12.1409 C   0  0  0  0  0  0  0  0  0  0  0  0
    0.5460   10.8815   12.5321 C   0  0  0  0  0  0  0  0  0  0  0  0
    0.2906   12.2363   12.5099 C   0  0  0  0  0  0  0  0  0  0  0  0
   -0.9593   12.6352   12.0744 C   0  0  0  0  0  0  0  0  0  0  0  0
   -1.9188   11.7201   11.6761 C   0  0  0  0  0  0  0  0  0  0  0  0
   -1.6423   10.3724   11.7065 C   0  0  0  0  0  0  0  0  0  0  0  0
   -1.2896   13.9716   12.0238 O   0  0  0  0  0  0  0  0  0  0  0  0
    3.6968    2.7928   12.9839 N   0  0  0  0  0  0  0  0  0  0  0  0
  1  2  2  0
  2  3  1  0
  3  4  1  0
  4  5  2  0
  4  6  1  0
  6  7  2  0
  7  8  1  0
  8  9  1  0
  9 10  2  0
 10 11  1  0
 11 12  2  0
 12 13  1  0
 13 14  2  0
 11 15  1  0
 15 16  1  0
 16 17  1  0
 17 18  1  0
 18 19  2  0
 19 20  1  0
 20 21  2  0
 21 22  1  0
 22 23  2  0
 21 24  1  0
  9 25  1  0
  5  1  1  0
 14  6  1  0
 13  8  1  0
 23 18  1  0
M  END
$$$$
