
     RDKit          3D

 25 28  0  0  0  0  0  0  0  0999 V2000
    1.5067    0.6555    6.0959 C   0  0  0  0  0  0  0  0  0  0  0  0
    2.7495    0.2058    6.4767 C   0  0  0  0  0  0  0  0  0  0  0  0
    3.1017    0.8828    7.5346 O   0  0  0  0  0  0  0  0  0  0  0  0
    2.2055    1.7568    7.9089 C   0  0  0  0  0  0  0  0  0  0  0  0
    1.1663    1.6354    7.0031 C   0  0  0  0  0  0  0  0  0  0  0  0
    2.2374    2.6875    9.0312 C   0  0  0  0  0  0  0  0  0  0  0  0
    3.0090    2.6991   10.1322 N   0  0  0  0  0  0  0  0  0  0  0  0
    2.7180    3.7278   10.9129 N   0  0  0  0  0  0  0  0  0  0  0  0
    3.2094    4.1584   12.1040 C   0  0  0  0  0  0  0  0  0  0  0  0
    2.6980    5.2679   12.6672 N   0  0  0  0  0  0  0  0  0  0  0  0
    1.7077    5.9690   12.0829 C   0  0  0  0  0  0  0  0  0  0  0  0
    1.2514    5.5064   10.9041 N   0  0  0  0  0  0  0  0  0  0  0  0
    1.7333    4.4081   10.3122 C   0  0  0  0  0  0  0  0  0  0  0  0
    1.4355    3.7798    9.1652 N   0  0  0  0  0  0  0  0  0  0  0  0
    1.1655    7.1392   12.6729 N   0  0  0  0  0  0  0  0  0  0  0  0
    1.3803    7.4292   14.0568 C   0  0  0  0  0  0  0  0  0  0  0  0
    2.8141    7.6412   14.4144 C   0  0  0  0  0  0  0  0  0  0  0  0
    2.8783    8.5955   15.5517 C   0  0  0  0  0  0  0  0  0  0  0  0
    2.2615    8.2451   16.7349 C   0  0  0  0  0  0  0  0  0  0  0  0
    2.2699    9.0673   17.8418 C   0  0  0  0  0  0  0  0  0  0  0  0
    2.9292   10.2766   17.7240 C   0  0  0  0  0  0  0  0  0  0  0  0
    3.5565   10.6534   16.5487 C   0  0  0  0  0  0  0  0  0  0  0  0
    3.5356    9.8170   15.4561 C   0  0  0  0  0  0  0  0  0  0  0  0
    2.9813   11.1521   18.7862 O   0  0  0  0  0  0  0  0  0  0  0  0
    4.2594    3.4282   12.7387 N   0  0  0  0  0  0  0  0  0  0  0  0
  1  2  2  0
  2  3  1  0
  3  4  1  0
  4  5  2  0
  4  6  1  0
  6  7  2  0
  7  8  1  0
  8  9  1  0
  9 10  2  0
 10 11  1  0
 11 12  2  0
 12 13  1  0
 13 14  2  0
 11 15  1  0
 15 16  1  0
 16 17  1  0
 17 18  1  0
 18 19  2  0
 19 20  1  0
 20 21  2  0
 21 22  1  0
 22 23  2  0
 21 24  1  0
  9 25  1  0
  5  1  1  0
 14  6  1  0
 13  8  1  0
 23 18  1  0
M  END
$$$$
