
     RDKit          3D

 25 28  0  0  0  0  0  0  0  0999 V2000
    1.2547    0.7404    6.0463 C   0  0  0  0  0  0  0  0  0  0  0  0
    2.4040    0.1610    6.5311 C   0  0  0  0  0  0  0  0  0  0  0  0
    2.8149    0.8888    7.5327 O   0  0  0  0  0  0  0  0  0  0  0  0
    2.0442    1.9161    7.7733 C   0  0  0  0  0  0  0  0  0  0  0  0
    1.0305    1.8490    6.8336 C   0  0  0  0  0  0  0  0  0  0  0  0
    2.1734    2.9459    8.7978 C   0  0  0  0  0  0  0  0  0  0  0  0
    2.9783    3.0098    9.8728 N   0  0  0  0  0  0  0  0  0  0  0  0
    2.7814    4.1265   10.5557 N   0  0  0  0  0  0  0  0  0  0  0  0
    3.3377    4.6345   11.6863 C   0  0  0  0  0  0  0  0  0  0  0  0
    2.9193    5.8258   12.1504 N   0  0  0  0  0  0  0  0  0  0  0  0
    1.9601    6.5346   11.5250 C   0  0  0  0  0  0  0  0  0  0  0  0
    1.4370    5.9935   10.4090 N   0  0  0  0  0  0  0  0  0  0  0  0
    1.8257    4.8126    9.9159 C   0  0  0  0  0  0  0  0  0  0  0  0
    1.4508    4.0990    8.8438 N   0  0  0  0  0  0  0  0  0  0  0  0
    1.5159    7.7909   12.0107 N   0  0  0  0  0  0  0  0  0  0  0  0
    2.0863    8.3638   13.1904 C   0  0  0  0  0  0  0  0  0  0  0  0
    1.4985    7.8435   14.4601 C   0  0  0  0  0  0  0  0  0  0  0  0
    2.2985    8.3674   15.5974 C   0  0  0  0  0  0  0  0  0  0  0  0
    3.6741    8.3388   15.4973 C   0  0  0  0  0  0  0  0  0  0  0  0
    4.4959    8.8032   16.5025 C   0  0  0  0  0  0  0  0  0  0  0  0
    3.8838    9.3079   17.6346 C   0  0  0  0  0  0  0  0  0  0  0  0
    2.5058    9.3487   17.7615 C   0  0  0  0  0  0  0  0  0  0  0  0
    1.7047    8.8796   16.7457 C   0  0  0  0  0  0  0  0  0  0  0  0
    4.6374    9.7906   18.6818 O   0  0  0  0  0  0  0  0  0  0  0  0
    4.3561    3.8977   12.3633 N   0  0  0  0  0  0  0  0  0  0  0  0
  1  2  2  0
  2  3  1  0
  3  4  1  0
  4  5  2  0
  4  6  1  0
  6  7  2  0
  7  8  1  0
  8  9  1  0
  9 10  2  0
 10 11  1  0
 11 12  2  0
 12 13  1  0
 13 14  2  0
 11 15  1  0
 15 16  1  0
 16 17  1  0
 17 18  1  0
 18 19  2  0
 19 20  1  0
 20 21  2  0
 21 22  1  0
 22 23  2  0
 21 24  1  0
  9 25  1  0
  5  1  1  0
 14  6  1  0
 13  8  1  0
 23 18  1  0
M  END
$$$$
