
     RDKit          3D

 25 28  0  0  0  0  0  0  0  0999 V2000
    1.3135    0.3733    6.5105 C   0  0  0  0  0  0  0  0  0  0  0  0
    2.5842    0.0190    6.8996 C   0  0  0  0  0  0  0  0  0  0  0  0
    2.9352    0.8236    7.8644 O   0  0  0  0  0  0  0  0  0  0  0  0
    2.0124    1.6975    8.1677 C   0  0  0  0  0  0  0  0  0  0  0  0
    0.9555    1.4341    7.3140 C   0  0  0  0  0  0  0  0  0  0  0  0
    2.0341    2.7484    9.1786 C   0  0  0  0  0  0  0  0  0  0  0  0
    2.8603    2.9368   10.2224 N   0  0  0  0  0  0  0  0  0  0  0  0
    2.5350    4.0243   10.9034 N   0  0  0  0  0  0  0  0  0  0  0  0
    3.0555    4.6189   12.0085 C   0  0  0  0  0  0  0  0  0  0  0  0
    2.4929    5.7468   12.4786 N   0  0  0  0  0  0  0  0  0  0  0  0
    1.4231    6.3081   11.8837 C   0  0  0  0  0  0  0  0  0  0  0  0
    0.9405    5.6855   10.7922 N   0  0  0  0  0  0  0  0  0  0  0  0
    1.4713    4.5634   10.2942 C   0  0  0  0  0  0  0  0  0  0  0  0
    1.1607    3.7911    9.2424 N   0  0  0  0  0  0  0  0  0  0  0  0
    0.8267    7.4971   12.3757 N   0  0  0  0  0  0  0  0  0  0  0  0
    1.3976    8.1993   13.4830 C   0  0  0  0  0  0  0  0  0  0  0  0
    1.1214    7.5673   14.8069 C   0  0  0  0  0  0  0  0  0  0  0  0
    2.2496    7.8811   15.7217 C   0  0  0  0  0  0  0  0  0  0  0  0
    3.0096    9.0028   15.4619 C   0  0  0  0  0  0  0  0  0  0  0  0
    4.0748    9.3712   16.2562 C   0  0  0  0  0  0  0  0  0  0  0  0
    4.3608    8.5642   17.3415 C   0  0  0  0  0  0  0  0  0  0  0  0
    3.6148    7.4331   17.6255 C   0  0  0  0  0  0  0  0  0  0  0  0
    2.5557    7.0840   16.8191 C   0  0  0  0  0  0  0  0  0  0  0  0
    5.4097    8.8667   18.1817 O   0  0  0  0  0  0  0  0  0  0  0  0
    4.1897    4.0386   12.6530 N   0  0  0  0  0  0  0  0  0  0  0  0
  1  2  2  0
  2  3  1  0
  3  4  1  0
  4  5  2  0
  4  6  1  0
  6  7  2  0
  7  8  1  0
  8  9  1  0
  9 10  2  0
 10 11  1  0
 11 12  2  0
 12 13  1  0
 13 14  2  0
 11 15  1  0
 15 16  1  0
 16 17  1  0
 17 18  1  0
 18 19  2  0
 19 20  1  0
 20 21  2  0
 21 22  1  0
 22 23  2  0
 21 24  1  0
  9 25  1  0
  5  1  1  0
 14  6  1  0
 13  8  1  0
 23 18  1  0
M  END
$$$$
