
     RDKit          3D

 25 28  0  0  0  0  0  0  0  0999 V2000
    2.3924    0.1340    6.5237 C   0  0  0  0  0  0  0  0  0  0  0  0
    3.5352   -0.0330    7.2706 C   0  0  0  0  0  0  0  0  0  0  0  0
    3.5078    0.8520    8.2285 O   0  0  0  0  0  0  0  0  0  0  0  0
    2.4435    1.6095    8.1996 C   0  0  0  0  0  0  0  0  0  0  0  0
    1.7052    1.1727    7.1137 C   0  0  0  0  0  0  0  0  0  0  0  0
    2.0614    2.6972    9.0927 C   0  0  0  0  0  0  0  0  0  0  0  0
    2.6588    3.1642   10.2029 N   0  0  0  0  0  0  0  0  0  0  0  0
    1.9816    4.1746   10.7251 N   0  0  0  0  0  0  0  0  0  0  0  0
    2.1770    4.9582   11.8176 C   0  0  0  0  0  0  0  0  0  0  0  0
    1.2923    5.9317   12.0989 N   0  0  0  0  0  0  0  0  0  0  0  0
    0.2123    6.1548   11.3261 C   0  0  0  0  0  0  0  0  0  0  0  0
    0.0582    5.3551   10.2544 N   0  0  0  0  0  0  0  0  0  0  0  0
    0.9150    4.3770    9.9411 C   0  0  0  0  0  0  0  0  0  0  0  0
    0.9573    3.4803    8.9445 N   0  0  0  0  0  0  0  0  0  0  0  0
   -0.7231    7.1800   11.6188 N   0  0  0  0  0  0  0  0  0  0  0  0
   -0.5113    8.0741   12.7147 C   0  0  0  0  0  0  0  0  0  0  0  0
    0.4022    9.2117   12.3987 C   0  0  0  0  0  0  0  0  0  0  0  0
    1.3093    9.4213   13.5569 C   0  0  0  0  0  0  0  0  0  0  0  0
    2.5823    9.8940   13.3132 C   0  0  0  0  0  0  0  0  0  0  0  0
    3.4913   10.1183   14.3255 C   0  0  0  0  0  0  0  0  0  0  0  0
    3.0767    9.8486   15.6164 C   0  0  0  0  0  0  0  0  0  0  0  0
    1.8052    9.3736   15.8894 C   0  0  0  0  0  0  0  0  0  0  0  0
    0.9141    9.1569   14.8635 C   0  0  0  0  0  0  0  0  0  0  0  0
    3.9278   10.0475   16.6811 O   0  0  0  0  0  0  0  0  0  0  0  0
    3.3164    4.7368   12.6490 N   0  0  0  0  0  0  0  0  0  0  0  0
  1  2  2  0
  2  3  1  0
  3  4  1  0
  4  5  2  0
  4  6  1  0
  6  7  2  0
  7  8  1  0
  8  9  1  0
  9 10  2  0
 10 11  1  0
 11 12  2  0
 12 13  1  0
 13 14  2  0
 11 15  1  0
 15 16  1  0
 16 17  1  0
 17 18  1  0
 18 19  2  0
 19 20  1  0
 20 21  2  0
 21 22  1  0
 22 23  2  0
 21 24  1  0
  9 25  1  0
  5  1  1  0
 14  6  1  0
 13  8  1  0
 23 18  1  0
M  END
$$$$
