
     RDKit          3D

 25 28  0  0  0  0  0  0  0  0999 V2000
    1.6061   -0.0670    6.8064 C   0  0  0  0  0  0  0  0  0  0  0  0
    2.8196   -0.4380    7.3371 C   0  0  0  0  0  0  0  0  0  0  0  0
    3.1145    0.4209    8.2735 O   0  0  0  0  0  0  0  0  0  0  0  0
    2.2059    1.3471    8.4278 C   0  0  0  0  0  0  0  0  0  0  0  0
    1.2215    1.0612    7.4980 C   0  0  0  0  0  0  0  0  0  0  0  0
    2.1797    2.4667    9.3619 C   0  0  0  0  0  0  0  0  0  0  0  0
    2.9608    2.7352   10.4227 N   0  0  0  0  0  0  0  0  0  0  0  0
    2.6012    3.8650   11.0113 N   0  0  0  0  0  0  0  0  0  0  0  0
    3.0721    4.5404   12.0920 C   0  0  0  0  0  0  0  0  0  0  0  0
    2.4840    5.6936   12.4578 N   0  0  0  0  0  0  0  0  0  0  0  0
    1.4364    6.2023   11.7815 C   0  0  0  0  0  0  0  0  0  0  0  0
    1.0031    5.5004   10.7178 N   0  0  0  0  0  0  0  0  0  0  0  0
    1.5606    4.3507   10.3225 C   0  0  0  0  0  0  0  0  0  0  0  0
    1.2984    3.5037    9.3161 N   0  0  0  0  0  0  0  0  0  0  0  0
    0.8133    7.4178   12.1634 N   0  0  0  0  0  0  0  0  0  0  0  0
    1.3389    8.2056   13.2350 C   0  0  0  0  0  0  0  0  0  0  0  0
    0.8957    7.7579   14.5883 C   0  0  0  0  0  0  0  0  0  0  0  0
    2.0447    7.8786   15.5228 C   0  0  0  0  0  0  0  0  0  0  0  0
    3.2552    7.3358   15.1443 C   0  0  0  0  0  0  0  0  0  0  0  0
    4.3748    7.4004   15.9466 C   0  0  0  0  0  0  0  0  0  0  0  0
    4.2411    8.0390   17.1653 C   0  0  0  0  0  0  0  0  0  0  0  0
    3.0384    8.5925   17.5702 C   0  0  0  0  0  0  0  0  0  0  0  0
    1.9336    8.5164   16.7533 C   0  0  0  0  0  0  0  0  0  0  0  0
    5.3145    8.1440   18.0222 O   0  0  0  0  0  0  0  0  0  0  0  0
    4.1819    4.0168   12.8217 N   0  0  0  0  0  0  0  0  0  0  0  0
  1  2  2  0
  2  3  1  0
  3  4  1  0
  4  5  2  0
  4  6  1  0
  6  7  2  0
  7  8  1  0
  8  9  1  0
  9 10  2  0
 10 11  1  0
 11 12  2  0
 12 13  1  0
 13 14  2  0
 11 15  1  0
 15 16  1  0
 16 17  1  0
 17 18  1  0
 18 19  2  0
 19 20  1  0
 20 21  2  0
 21 22  1  0
 22 23  2  0
 21 24  1  0
  9 25  1  0
  5  1  1  0
 14  6  1  0
 13  8  1  0
 23 18  1  0
M  END
$$$$
