
     RDKit          3D

 25 28  0  0  0  0  0  0  0  0999 V2000
    1.6851    0.6299    6.1643 C   0  0  0  0  0  0  0  0  0  0  0  0
    2.7947    0.1113    6.7900 C   0  0  0  0  0  0  0  0  0  0  0  0
    3.0000    0.8170    7.8677 O   0  0  0  0  0  0  0  0  0  0  0  0
    2.1252    1.7735    8.0316 C   0  0  0  0  0  0  0  0  0  0  0  0
    1.2648    1.6800    6.9517 C   0  0  0  0  0  0  0  0  0  0  0  0
    2.0258    2.7588    9.1021 C   0  0  0  0  0  0  0  0  0  0  0  0
    2.7055    2.8621   10.2575 N   0  0  0  0  0  0  0  0  0  0  0  0
    2.3076    3.9127   10.9577 N   0  0  0  0  0  0  0  0  0  0  0  0
    2.6825    4.4249   12.1588 C   0  0  0  0  0  0  0  0  0  0  0  0
    2.0787    5.5345   12.6211 N   0  0  0  0  0  0  0  0  0  0  0  0
    1.1082    6.1572   11.9255 C   0  0  0  0  0  0  0  0  0  0  0  0
    0.7686    5.6153   10.7410 N   0  0  0  0  0  0  0  0  0  0  0  0
    1.3447    4.5139   10.2472 C   0  0  0  0  0  0  0  0  0  0  0  0
    1.1679    3.8162    9.1154 N   0  0  0  0  0  0  0  0  0  0  0  0
    0.4689    7.3273   12.4089 N   0  0  0  0  0  0  0  0  0  0  0  0
    0.8703    7.9241   13.6450 C   0  0  0  0  0  0  0  0  0  0  0  0
    2.1084    8.7517   13.5426 C   0  0  0  0  0  0  0  0  0  0  0  0
    2.8947    8.5771   14.7914 C   0  0  0  0  0  0  0  0  0  0  0  0
    4.1618    9.1198   14.8475 C   0  0  0  0  0  0  0  0  0  0  0  0
    4.9627    9.0073   15.9643 C   0  0  0  0  0  0  0  0  0  0  0  0
    4.4438    8.3200   17.0457 C   0  0  0  0  0  0  0  0  0  0  0  0
    3.1756    7.7655   17.0165 C   0  0  0  0  0  0  0  0  0  0  0  0
    2.3934    7.8898   15.8912 C   0  0  0  0  0  0  0  0  0  0  0  0
    5.1835    8.1655   18.1974 O   0  0  0  0  0  0  0  0  0  0  0  0
    3.7097    3.7787   12.9109 N   0  0  0  0  0  0  0  0  0  0  0  0
  1  2  2  0
  2  3  1  0
  3  4  1  0
  4  5  2  0
  4  6  1  0
  6  7  2  0
  7  8  1  0
  8  9  1  0
  9 10  2  0
 10 11  1  0
 11 12  2  0
 12 13  1  0
 13 14  2  0
 11 15  1  0
 15 16  1  0
 16 17  1  0
 17 18  1  0
 18 19  2  0
 19 20  1  0
 20 21  2  0
 21 22  1  0
 22 23  2  0
 21 24  1  0
  9 25  1  0
  5  1  1  0
 14  6  1  0
 13  8  1  0
 23 18  1  0
M  END
$$$$
