
     RDKit          3D

 25 28  0  0  0  0  0  0  0  0999 V2000
    1.4827    0.5824    6.2521 C   0  0  0  0  0  0  0  0  0  0  0  0
    2.5071   -0.0683    6.8994 C   0  0  0  0  0  0  0  0  0  0  0  0
    2.7732    0.6056    7.9841 O   0  0  0  0  0  0  0  0  0  0  0  0
    2.0178    1.6613    8.1331 C   0  0  0  0  0  0  0  0  0  0  0  0
    1.1762    1.6747    7.0345 C   0  0  0  0  0  0  0  0  0  0  0  0
    2.0157    2.6499    9.2052 C   0  0  0  0  0  0  0  0  0  0  0  0
    2.6583    2.6563   10.3861 N   0  0  0  0  0  0  0  0  0  0  0  0
    2.3841    3.7515   11.0772 N   0  0  0  0  0  0  0  0  0  0  0  0
    2.7804    4.2053   12.2949 C   0  0  0  0  0  0  0  0  0  0  0  0
    2.3199    5.3879   12.7409 N   0  0  0  0  0  0  0  0  0  0  0  0
    1.4729    6.1404   12.0129 C   0  0  0  0  0  0  0  0  0  0  0  0
    1.1069    5.6523   10.8131 N   0  0  0  0  0  0  0  0  0  0  0  0
    1.5424    4.4818   10.3346 C   0  0  0  0  0  0  0  0  0  0  0  0
    1.3136    3.8165    9.1926 N   0  0  0  0  0  0  0  0  0  0  0  0
    0.9849    7.3879   12.4790 N   0  0  0  0  0  0  0  0  0  0  0  0
    0.6721    7.5823   13.8609 C   0  0  0  0  0  0  0  0  0  0  0  0
    1.5245    6.7849   14.7915 C   0  0  0  0  0  0  0  0  0  0  0  0
    2.5151    7.6972   15.4195 C   0  0  0  0  0  0  0  0  0  0  0  0
    2.0468    8.8013   16.1014 C   0  0  0  0  0  0  0  0  0  0  0  0
    2.8921    9.7016   16.7149 C   0  0  0  0  0  0  0  0  0  0  0  0
    4.2494    9.4562   16.6221 C   0  0  0  0  0  0  0  0  0  0  0  0
    4.7466    8.3563   15.9441 C   0  0  0  0  0  0  0  0  0  0  0  0
    3.8846    7.4705   15.3390 C   0  0  0  0  0  0  0  0  0  0  0  0
    5.1570   10.3102   17.2090 O   0  0  0  0  0  0  0  0  0  0  0  0
    3.6780    3.4214   13.0812 N   0  0  0  0  0  0  0  0  0  0  0  0
  1  2  2  0
  2  3  1  0
  3  4  1  0
  4  5  2  0
  4  6  1  0
  6  7  2  0
  7  8  1  0
  8  9  1  0
  9 10  2  0
 10 11  1  0
 11 12  2  0
 12 13  1  0
 13 14  2  0
 11 15  1  0
 15 16  1  0
 16 17  1  0
 17 18  1  0
 18 19  2  0
 19 20  1  0
 20 21  2  0
 21 22  1  0
 22 23  2  0
 21 24  1  0
  9 25  1  0
  5  1  1  0
 14  6  1  0
 13  8  1  0
 23 18  1  0
M  END
$$$$
