
     RDKit          3D

 25 28  0  0  0  0  0  0  0  0999 V2000
    0.2331    2.4203    6.1065 C   0  0  0  0  0  0  0  0  0  0  0  0
    1.0358    1.3186    6.2898 C   0  0  0  0  0  0  0  0  0  0  0  0
    1.6974    1.4985    7.3994 O   0  0  0  0  0  0  0  0  0  0  0  0
    1.4151    2.6294    7.9900 C   0  0  0  0  0  0  0  0  0  0  0  0
    0.4755    3.2463    7.1827 C   0  0  0  0  0  0  0  0  0  0  0  0
    1.9442    3.1776    9.2335 C   0  0  0  0  0  0  0  0  0  0  0  0
    2.6512    2.5893   10.2141 N   0  0  0  0  0  0  0  0  0  0  0  0
    2.9397    3.4470   11.1803 N   0  0  0  0  0  0  0  0  0  0  0  0
    3.6174    3.3328   12.3522 C   0  0  0  0  0  0  0  0  0  0  0  0
    3.7490    4.4104   13.1467 N   0  0  0  0  0  0  0  0  0  0  0  0
    3.2263    5.6061   12.8140 C   0  0  0  0  0  0  0  0  0  0  0  0
    2.5632    5.6734   11.6446 N   0  0  0  0  0  0  0  0  0  0  0  0
    2.4108    4.6256   10.8275 C   0  0  0  0  0  0  0  0  0  0  0  0
    1.8027    4.4686    9.6423 N   0  0  0  0  0  0  0  0  0  0  0  0
    3.3625    6.7448   13.6485 N   0  0  0  0  0  0  0  0  0  0  0  0
    2.7020    7.9718   13.3273 C   0  0  0  0  0  0  0  0  0  0  0  0
    1.6213    8.3457   14.2869 C   0  0  0  0  0  0  0  0  0  0  0  0
    0.7688    9.3846   13.6529 C   0  0  0  0  0  0  0  0  0  0  0  0
    0.9161    9.6155   12.3007 C   0  0  0  0  0  0  0  0  0  0  0  0
    0.1684   10.5592   11.6287 C   0  0  0  0  0  0  0  0  0  0  0  0
   -0.7507   11.2794   12.3688 C   0  0  0  0  0  0  0  0  0  0  0  0
   -0.9191   11.0682   13.7267 C   0  0  0  0  0  0  0  0  0  0  0  0
   -0.1619   10.1210   14.3773 C   0  0  0  0  0  0  0  0  0  0  0  0
   -1.5348   12.2397   11.7684 O   0  0  0  0  0  0  0  0  0  0  0  0
    4.1788    2.0732   12.7220 N   0  0  0  0  0  0  0  0  0  0  0  0
  1  2  2  0
  2  3  1  0
  3  4  1  0
  4  5  2  0
  4  6  1  0
  6  7  2  0
  7  8  1  0
  8  9  1  0
  9 10  2  0
 10 11  1  0
 11 12  2  0
 12 13  1  0
 13 14  2  0
 11 15  1  0
 15 16  1  0
 16 17  1  0
 17 18  1  0
 18 19  2  0
 19 20  1  0
 20 21  2  0
 21 22  1  0
 22 23  2  0
 21 24  1  0
  9 25  1  0
  5  1  1  0
 14  6  1  0
 13  8  1  0
 23 18  1  0
M  END
$$$$
