
     RDKit          3D

 25 28  0  0  0  0  0  0  0  0999 V2000
    2.9882    1.0288    6.0438 C   0  0  0  0  0  0  0  0  0  0  0  0
    2.7141   -0.0617    6.8358 C   0  0  0  0  0  0  0  0  0  0  0  0
    2.2428    0.3863    7.9666 O   0  0  0  0  0  0  0  0  0  0  0  0
    2.1716    1.6901    8.0146 C   0  0  0  0  0  0  0  0  0  0  0  0
    2.6442    2.1338    6.7919 C   0  0  0  0  0  0  0  0  0  0  0  0
    1.7037    2.5489    9.0963 C   0  0  0  0  0  0  0  0  0  0  0  0
    1.0398    2.2452   10.2253 N   0  0  0  0  0  0  0  0  0  0  0  0
    0.8009    3.3274   10.9491 N   0  0  0  0  0  0  0  0  0  0  0  0
    0.1777    3.5305   12.1391 C   0  0  0  0  0  0  0  0  0  0  0  0
    0.0889    4.7783   12.6337 N   0  0  0  0  0  0  0  0  0  0  0  0
    0.6019    5.8389   11.9815 C   0  0  0  0  0  0  0  0  0  0  0  0
    1.2104    5.5916   10.8066 N   0  0  0  0  0  0  0  0  0  0  0  0
    1.3192    4.3663   10.2816 C   0  0  0  0  0  0  0  0  0  0  0  0
    1.8708    3.8991    9.1518 N   0  0  0  0  0  0  0  0  0  0  0  0
    0.5106    7.1562   12.4991 N   0  0  0  0  0  0  0  0  0  0  0  0
    1.6669    7.8241   13.0111 C   0  0  0  0  0  0  0  0  0  0  0  0
    1.6263    8.0589   14.4848 C   0  0  0  0  0  0  0  0  0  0  0  0
    3.0217    8.0840   14.9951 C   0  0  0  0  0  0  0  0  0  0  0  0
    4.0245    7.5993   14.1809 C   0  0  0  0  0  0  0  0  0  0  0  0
    5.3470    7.5833   14.5708 C   0  0  0  0  0  0  0  0  0  0  0  0
    5.6398    8.0783   15.8279 C   0  0  0  0  0  0  0  0  0  0  0  0
    4.6533    8.5707   16.6654 C   0  0  0  0  0  0  0  0  0  0  0  0
    3.3396    8.5770   16.2557 C   0  0  0  0  0  0  0  0  0  0  0  0
    6.9378    8.0958   16.2887 O   0  0  0  0  0  0  0  0  0  0  0  0
   -0.3725    2.4183   12.8454 N   0  0  0  0  0  0  0  0  0  0  0  0
  1  2  2  0
  2  3  1  0
  3  4  1  0
  4  5  2  0
  4  6  1  0
  6  7  2  0
  7  8  1  0
  8  9  1  0
  9 10  2  0
 10 11  1  0
 11 12  2  0
 12 13  1  0
 13 14  2  0
 11 15  1  0
 15 16  1  0
 16 17  1  0
 17 18  1  0
 18 19  2  0
 19 20  1  0
 20 21  2  0
 21 22  1  0
 22 23  2  0
 21 24  1  0
  9 25  1  0
  5  1  1  0
 14  6  1  0
 13  8  1  0
 23 18  1  0
M  END
$$$$
