
     RDKit          3D

 25 28  0  0  0  0  0  0  0  0999 V2000
    0.8076    1.2285    6.9127 C   0  0  0  0  0  0  0  0  0  0  0  0
    2.0312    1.6296    6.4293 C   0  0  0  0  0  0  0  0  0  0  0  0
    2.6003    2.3486    7.3570 O   0  0  0  0  0  0  0  0  0  0  0  0
    1.8697    2.4729    8.4331 C   0  0  0  0  0  0  0  0  0  0  0  0
    0.7091    1.7633    8.1790 C   0  0  0  0  0  0  0  0  0  0  0  0
    2.1614    3.1922    9.6677 C   0  0  0  0  0  0  0  0  0  0  0  0
    3.1354    3.0060   10.5756 N   0  0  0  0  0  0  0  0  0  0  0  0
    3.0474    3.8836   11.5627 N   0  0  0  0  0  0  0  0  0  0  0  0
    3.7821    4.0957   12.6856 C   0  0  0  0  0  0  0  0  0  0  0  0
    3.4384    5.0923   13.5212 N   0  0  0  0  0  0  0  0  0  0  0  0
    2.3818    5.8909   13.2775 C   0  0  0  0  0  0  0  0  0  0  0  0
    1.6826    5.6449   12.1539 N   0  0  0  0  0  0  0  0  0  0  0  0
    1.9921    4.6645   11.2984 C   0  0  0  0  0  0  0  0  0  0  0  0
    1.4476    4.2489   10.1452 N   0  0  0  0  0  0  0  0  0  0  0  0
    2.0158    6.9428   14.1556 N   0  0  0  0  0  0  0  0  0  0  0  0
    1.0734    7.9398   13.7520 C   0  0  0  0  0  0  0  0  0  0  0  0
    1.6807    9.0750   12.9963 C   0  0  0  0  0  0  0  0  0  0  0  0
    0.6506    9.6370   12.0847 C   0  0  0  0  0  0  0  0  0  0  0  0
    0.9217    9.6691   10.7323 C   0  0  0  0  0  0  0  0  0  0  0  0
    0.0256   10.1722    9.8130 C   0  0  0  0  0  0  0  0  0  0  0  0
   -1.1755   10.6522   10.3007 C   0  0  0  0  0  0  0  0  0  0  0  0
   -1.4735   10.6322   11.6526 C   0  0  0  0  0  0  0  0  0  0  0  0
   -0.5642   10.1254   12.5526 C   0  0  0  0  0  0  0  0  0  0  0  0
   -2.1218   11.1706    9.4444 O   0  0  0  0  0  0  0  0  0  0  0  0
    4.9059    3.2593   12.9610 N   0  0  0  0  0  0  0  0  0  0  0  0
  1  2  2  0
  2  3  1  0
  3  4  1  0
  4  5  2  0
  4  6  1  0
  6  7  2  0
  7  8  1  0
  8  9  1  0
  9 10  2  0
 10 11  1  0
 11 12  2  0
 12 13  1  0
 13 14  2  0
 11 15  1  0
 15 16  1  0
 16 17  1  0
 17 18  1  0
 18 19  2  0
 19 20  1  0
 20 21  2  0
 21 22  1  0
 22 23  2  0
 21 24  1  0
  9 25  1  0
  5  1  1  0
 14  6  1  0
 13  8  1  0
 23 18  1  0
M  END
$$$$
