
     RDKit          3D

 25 28  0  0  0  0  0  0  0  0999 V2000
    0.9762    1.9390    6.0288 C   0  0  0  0  0  0  0  0  0  0  0  0
    2.1450    1.2673    6.3014 C   0  0  0  0  0  0  0  0  0  0  0  0
    2.5775    1.6905    7.4570 O   0  0  0  0  0  0  0  0  0  0  0  0
    1.8036    2.5942    7.9972 C   0  0  0  0  0  0  0  0  0  0  0  0
    0.7637    2.7765    7.1025 C   0  0  0  0  0  0  0  0  0  0  0  0
    1.9521    3.2956    9.2671 C   0  0  0  0  0  0  0  0  0  0  0  0
    2.8084    3.0879   10.2826 N   0  0  0  0  0  0  0  0  0  0  0  0
    2.6110    3.9547   11.2634 N   0  0  0  0  0  0  0  0  0  0  0  0
    3.2078    4.1455   12.4689 C   0  0  0  0  0  0  0  0  0  0  0  0
    2.7759    5.1359   13.2703 N   0  0  0  0  0  0  0  0  0  0  0  0
    1.7639    5.9490   12.9122 C   0  0  0  0  0  0  0  0  0  0  0  0
    1.2021    5.7239   11.7099 N   0  0  0  0  0  0  0  0  0  0  0  0
    1.6026    4.7504   10.8849 C   0  0  0  0  0  0  0  0  0  0  0  0
    1.1963    4.3544    9.6695 N   0  0  0  0  0  0  0  0  0  0  0  0
    1.3053    6.9944   13.7538 N   0  0  0  0  0  0  0  0  0  0  0  0
    0.4237    8.0036   13.2545 C   0  0  0  0  0  0  0  0  0  0  0  0
    1.1100    9.2765   12.8844 C   0  0  0  0  0  0  0  0  0  0  0  0
    1.8394    9.7809   14.0767 C   0  0  0  0  0  0  0  0  0  0  0  0
    1.1294    9.9754   15.2436 C   0  0  0  0  0  0  0  0  0  0  0  0
    1.7227   10.4400   16.3983 C   0  0  0  0  0  0  0  0  0  0  0  0
    3.0777   10.7094   16.3466 C   0  0  0  0  0  0  0  0  0  0  0  0
    3.8142   10.5233   15.1892 C   0  0  0  0  0  0  0  0  0  0  0  0
    3.2015   10.0586   14.0480 C   0  0  0  0  0  0  0  0  0  0  0  0
    3.7416   11.1766   17.4595 O   0  0  0  0  0  0  0  0  0  0  0  0
    4.2825    3.2935   12.8660 N   0  0  0  0  0  0  0  0  0  0  0  0
  1  2  2  0
  2  3  1  0
  3  4  1  0
  4  5  2  0
  4  6  1  0
  6  7  2  0
  7  8  1  0
  8  9  1  0
  9 10  2  0
 10 11  1  0
 11 12  2  0
 12 13  1  0
 13 14  2  0
 11 15  1  0
 15 16  1  0
 16 17  1  0
 17 18  1  0
 18 19  2  0
 19 20  1  0
 20 21  2  0
 21 22  1  0
 22 23  2  0
 21 24  1  0
  9 25  1  0
  5  1  1  0
 14  6  1  0
 13  8  1  0
 23 18  1  0
M  END
$$$$
