
     RDKit          3D

 25 28  0  0  0  0  0  0  0  0999 V2000
    1.5959    0.4474    6.6314 C   0  0  0  0  0  0  0  0  0  0  0  0
    2.8691    0.1575    7.0634 C   0  0  0  0  0  0  0  0  0  0  0  0
    3.1712    1.0206    7.9937 O   0  0  0  0  0  0  0  0  0  0  0  0
    2.2128    1.8755    8.2340 C   0  0  0  0  0  0  0  0  0  0  0  0
    1.1845    1.5335    7.3733 C   0  0  0  0  0  0  0  0  0  0  0  0
    2.1766    2.9752    9.1911 C   0  0  0  0  0  0  0  0  0  0  0  0
    2.9893    3.2589   10.2239 N   0  0  0  0  0  0  0  0  0  0  0  0
    2.6053    4.3602   10.8500 N   0  0  0  0  0  0  0  0  0  0  0  0
    3.0912    5.0359   11.9238 C   0  0  0  0  0  0  0  0  0  0  0  0
    2.4686    6.1544   12.3373 N   0  0  0  0  0  0  0  0  0  0  0  0
    1.3718    6.6278   11.7156 C   0  0  0  0  0  0  0  0  0  0  0  0
    0.9253    5.9269   10.6567 N   0  0  0  0  0  0  0  0  0  0  0  0
    1.5159    4.8111   10.2151 C   0  0  0  0  0  0  0  0  0  0  0  0
    1.2490    3.9720    9.2033 N   0  0  0  0  0  0  0  0  0  0  0  0
    0.7122    7.8066   12.1479 N   0  0  0  0  0  0  0  0  0  0  0  0
    1.3072    8.6620   13.1274 C   0  0  0  0  0  0  0  0  0  0  0  0
    0.9733    8.2932   14.5348 C   0  0  0  0  0  0  0  0  0  0  0  0
    2.1681    8.5438   15.3821 C   0  0  0  0  0  0  0  0  0  0  0  0
    2.7985    7.4612   15.9600 C   0  0  0  0  0  0  0  0  0  0  0  0
    3.9128    7.5985   16.7606 C   0  0  0  0  0  0  0  0  0  0  0  0
    4.3857    8.8807   16.9685 C   0  0  0  0  0  0  0  0  0  0  0  0
    3.7726    9.9848   16.4010 C   0  0  0  0  0  0  0  0  0  0  0  0
    2.6614    9.8245   15.6052 C   0  0  0  0  0  0  0  0  0  0  0  0
    5.4944    9.0989   17.7563 O   0  0  0  0  0  0  0  0  0  0  0  0
    4.2531    4.5494   12.5959 N   0  0  0  0  0  0  0  0  0  0  0  0
  1  2  2  0
  2  3  1  0
  3  4  1  0
  4  5  2  0
  4  6  1  0
  6  7  2  0
  7  8  1  0
  8  9  1  0
  9 10  2  0
 10 11  1  0
 11 12  2  0
 12 13  1  0
 13 14  2  0
 11 15  1  0
 15 16  1  0
 16 17  1  0
 17 18  1  0
 18 19  2  0
 19 20  1  0
 20 21  2  0
 21 22  1  0
 22 23  2  0
 21 24  1  0
  9 25  1  0
  5  1  1  0
 14  6  1  0
 13  8  1  0
 23 18  1  0
M  END
$$$$
