
     RDKit          3D

 25 28  0  0  0  0  0  0  0  0999 V2000
    1.5998    1.3438    5.7509 C   0  0  0  0  0  0  0  0  0  0  0  0
    2.8499    0.8820    6.0911 C   0  0  0  0  0  0  0  0  0  0  0  0
    3.1992    1.4806    7.1962 O   0  0  0  0  0  0  0  0  0  0  0  0
    2.2942    2.3121    7.6399 C   0  0  0  0  0  0  0  0  0  0  0  0
    1.2520    2.2471    6.7317 C   0  0  0  0  0  0  0  0  0  0  0  0
    2.3203    3.1546    8.8300 C   0  0  0  0  0  0  0  0  0  0  0  0
    3.1520    3.1454    9.8863 N   0  0  0  0  0  0  0  0  0  0  0  0
    2.8292    4.0850   10.7611 N   0  0  0  0  0  0  0  0  0  0  0  0
    3.3552    4.4627   11.9554 C   0  0  0  0  0  0  0  0  0  0  0  0
    2.7939    5.4811   12.6318 N   0  0  0  0  0  0  0  0  0  0  0  0
    1.7202    6.1418   12.1584 C   0  0  0  0  0  0  0  0  0  0  0  0
    1.2323    5.7342   10.9719 N   0  0  0  0  0  0  0  0  0  0  0  0
    1.7616    4.7267   10.2694 C   0  0  0  0  0  0  0  0  0  0  0  0
    1.4462    4.1649    9.0930 N   0  0  0  0  0  0  0  0  0  0  0  0
    1.1252    7.2161   12.8679 N   0  0  0  0  0  0  0  0  0  0  0  0
    1.7712    7.7878   14.0086 C   0  0  0  0  0  0  0  0  0  0  0  0
    1.9104    9.2727   13.9433 C   0  0  0  0  0  0  0  0  0  0  0  0
    2.3999    9.7570   15.2601 C   0  0  0  0  0  0  0  0  0  0  0  0
    2.9764    8.8444   16.1193 C   0  0  0  0  0  0  0  0  0  0  0  0
    3.4582    9.2034   17.3604 C   0  0  0  0  0  0  0  0  0  0  0  0
    3.3420   10.5327   17.7215 C   0  0  0  0  0  0  0  0  0  0  0  0
    2.7679   11.4695   16.8790 C   0  0  0  0  0  0  0  0  0  0  0  0
    2.2936   11.0890   15.6445 C   0  0  0  0  0  0  0  0  0  0  0  0
    3.8000   10.9684   18.9454 O   0  0  0  0  0  0  0  0  0  0  0  0
    4.4935    3.7741   12.4736 N   0  0  0  0  0  0  0  0  0  0  0  0
  1  2  2  0
  2  3  1  0
  3  4  1  0
  4  5  2  0
  4  6  1  0
  6  7  2  0
  7  8  1  0
  8  9  1  0
  9 10  2  0
 10 11  1  0
 11 12  2  0
 12 13  1  0
 13 14  2  0
 11 15  1  0
 15 16  1  0
 16 17  1  0
 17 18  1  0
 18 19  2  0
 19 20  1  0
 20 21  2  0
 21 22  1  0
 22 23  2  0
 21 24  1  0
  9 25  1  0
  5  1  1  0
 14  6  1  0
 13  8  1  0
 23 18  1  0
M  END
$$$$
