
     RDKit          3D

 38 41  0  0  0  0  0  0  0  0999 V2000
   -3.5008   -3.5667   19.4369 C   0  0  0  0  0  0  0  0  0  0  0  0
   -3.0475   -3.5851   18.0871 O   0  0  0  0  0  0  0  0  0  0  0  0
   -2.6755   -4.7924   17.5322 C   0  0  0  0  0  0  0  0  0  0  0  0
   -2.8287   -5.8560   18.1613 O   0  0  0  0  0  0  0  0  0  0  0  0
   -2.0868   -4.8742   16.1848 C   0  0  0  0  0  0  0  0  0  0  0  0
   -1.9314   -3.8533   15.2753 C   0  0  0  0  0  0  0  0  0  0  0  0
   -1.3638   -4.3183   14.1816 N   0  0  0  0  0  0  0  0  0  0  0  0
   -1.1377   -5.6272   14.3424 C   0  0  0  0  0  0  0  0  0  0  0  0
   -1.5753   -6.0095   15.5796 C   0  0  0  0  0  0  0  0  0  0  0  0
   -1.5266   -7.3648   16.1858 C   0  0  0  0  0  0  0  0  0  0  0  0
   -2.8093   -8.0762   16.0066 C   0  0  0  0  0  0  0  0  0  0  0  0
   -3.8100   -7.4765   15.5652 O   0  0  0  0  0  0  0  0  0  0  0  0
   -2.9231   -9.4166   16.3243 O   0  0  0  0  0  1  0  0  0  0  0  0
   -0.9899   -3.6048   12.9222 C   0  0  0  0  0  0  0  0  0  0  0  0
   -2.0150   -3.9322   11.9243 C   0  0  1  0  0  0  0  0  0  0  0  0
   -2.1590   -2.8399   10.9137 C   0  0  1  0  0  0  0  0  0  0  0  0
   -2.0303   -1.4458   11.3473 C   0  0  0  0  0  0  0  0  0  0  0  0
   -3.0168   -0.5329   11.5794 C   0  0  0  0  0  0  0  0  0  0  0  0
   -2.7616    0.7890   11.9626 C   0  0  0  0  0  0  0  0  0  0  0  0
   -3.7895    1.6851   12.1878 O   0  0  0  0  0  0  0  0  0  0  0  0
   -5.1228    1.5201   11.7969 C   0  0  0  0  0  0  0  0  0  0  0  0
   -1.4771    1.2217   12.1227 C   0  0  0  0  0  0  0  0  0  0  0  0
   -0.4520    0.3291   11.8986 C   0  0  0  0  0  0  0  0  0  0  0  0
   -0.7135   -0.9393   11.5300 C   0  0  0  0  0  0  0  0  0  0  0  0
    0.8592    0.7762   12.0639 O   0  0  0  0  0  0  0  0  0  0  0  0
    1.9731   -0.0631   11.9561 C   0  0  0  0  0  0  0  0  0  0  0  0
   -1.1512    2.6254   12.5297 C   0  0  0  0  0  0  0  0  0  0  0  0
   -1.2210   -3.0294    9.8646 O   0  0  0  0  0  0  0  0  0  0  0  0
   -2.1405   -5.2265   11.2729 C   0  0  0  0  0  0  0  0  0  0  0  0
   -3.0138   -6.2960   11.6797 C   0  0  0  0  0  0  0  0  0  0  0  0
   -3.2499   -7.4488   10.7654 C   0  0  0  0  0  0  0  0  0  0  0  0
   -4.1811   -8.2736   11.6181 C   0  0  0  0  0  0  0  0  0  0  0  0
   -3.8533   -8.0310   12.9313 C   0  0  0  0  0  0  0  0  0  0  0  0
   -2.7300   -7.0091   12.9869 C   0  0  0  0  0  0  0  0  0  0  0  0
   -4.5642   -8.6991   13.9034 C   0  0  0  0  0  0  0  0  0  0  0  0
   -5.5775   -9.5858   13.5502 C   0  0  0  0  0  0  0  0  0  0  0  0
   -5.8803   -9.8044   12.2194 C   0  0  0  0  0  0  0  0  0  0  0  0
   -5.1728   -9.1395   11.2360 C   0  0  0  0  0  0  0  0  0  0  0  0
  1  2  1  0
  2  3  1  0
  3  4  2  0
  3  5  1  0
  5  6  2  0
  6  7  1  0
  7  8  1  0
  8  9  2  0
  9 10  1  0
 10 11  1  0
 11 12  2  0
 11 13  1  0
  7 14  1  0
 15 14  1  6
 15 16  1  0
 16 17  1  0
 17 18  2  0
 18 19  1  0
 19 20  1  0
 20 21  1  0
 19 22  2  0
 22 23  1  0
 23 24  2  0
 23 25  1  0
 25 26  1  0
 22 27  1  0
 16 28  1  6
 15 29  1  0
 29 30  1  0
 30 31  1  0
 31 32  1  0
 32 33  2  0
 33 34  1  0
 33 35  1  0
 35 36  2  0
 36 37  1  0
 37 38  2  0
  9  5  1  0
 24 17  1  0
 34 30  1  0
 38 32  1  0
M  CHG  1  13  -1
M  END
$$$$
