
     RDKit          3D

 38 41  0  0  0  0  0  0  0  0999 V2000
   -3.0802  -10.0837   16.8869 C   0  0  0  0  0  0  0  0  0  0  0  0
   -2.9188   -8.8143   16.2621 O   0  0  0  0  0  0  0  0  0  0  0  0
   -4.0399   -8.0416   16.0384 C   0  0  0  0  0  0  0  0  0  0  0  0
   -5.1777   -8.4860   16.2800 O   0  0  0  0  0  0  0  0  0  0  0  0
   -3.9398   -6.6709   15.5092 C   0  0  0  0  0  0  0  0  0  0  0  0
   -2.7968   -5.9303   15.3128 C   0  0  0  0  0  0  0  0  0  0  0  0
   -3.1140   -4.7493   14.8236 N   0  0  0  0  0  0  0  0  0  0  0  0
   -4.4438   -4.6868   14.6898 C   0  0  0  0  0  0  0  0  0  0  0  0
   -4.9928   -5.8669   15.1074 C   0  0  0  0  0  0  0  0  0  0  0  0
   -6.4291   -6.2447   15.1368 C   0  0  0  0  0  0  0  0  0  0  0  0
   -6.9992   -6.0709   16.4891 C   0  0  0  0  0  0  0  0  0  0  0  0
   -6.2631   -5.7870   17.4552 O   0  0  0  0  0  0  0  0  0  0  0  0
   -8.3560   -6.2195   16.7072 O   0  0  0  0  0  1  0  0  0  0  0  0
   -2.2311   -3.6036   14.4457 C   0  0  0  0  0  0  0  0  0  0  0  0
   -1.4754   -4.0192   13.2583 C   0  0  1  0  0  0  0  0  0  0  0  0
   -0.6847   -2.8838   12.6919 C   0  0  1  0  0  0  0  0  0  0  0  0
   -1.3720   -1.6338   12.3555 C   0  0  0  0  0  0  0  0  0  0  0  0
   -2.0936   -0.8137   13.1723 C   0  0  0  0  0  0  0  0  0  0  0  0
   -2.7342    0.3459   12.7202 C   0  0  0  0  0  0  0  0  0  0  0  0
   -3.4575    1.1511   13.5797 O   0  0  0  0  0  0  0  0  0  0  0  0
   -3.1388    1.4212   14.9150 C   0  0  0  0  0  0  0  0  0  0  0  0
   -2.6548    0.7063   11.4062 C   0  0  0  0  0  0  0  0  0  0  0  0
   -1.9339   -0.0958   10.5489 C   0  0  0  0  0  0  0  0  0  0  0  0
   -1.3236   -1.2084   10.9988 C   0  0  0  0  0  0  0  0  0  0  0  0
   -1.8556    0.2771    9.2068 O   0  0  0  0  0  0  0  0  0  0  0  0
   -0.9909   -0.3334    8.2923 C   0  0  0  0  0  0  0  0  0  0  0  0
   -3.3228    1.9356   10.8726 C   0  0  0  0  0  0  0  0  0  0  0  0
    0.3706   -2.5434   13.5791 O   0  0  0  0  0  0  0  0  0  0  0  0
   -0.7064   -5.2502   13.1658 C   0  0  0  0  0  0  0  0  0  0  0  0
   -1.1372   -6.4700   12.5343 C   0  0  0  0  0  0  0  0  0  0  0  0
   -0.1478   -7.5478   12.2517 C   0  0  0  0  0  0  0  0  0  0  0  0
   -1.0545   -8.5795   11.6287 C   0  0  0  0  0  0  0  0  0  0  0  0
   -2.2979   -8.4241   12.1949 C   0  0  0  0  0  0  0  0  0  0  0  0
   -2.2618   -7.2611   13.1723 C   0  0  0  0  0  0  0  0  0  0  0  0
   -3.2975   -9.2815   11.7917 C   0  0  0  0  0  0  0  0  0  0  0  0
   -3.0399  -10.2658   10.8417 C   0  0  0  0  0  0  0  0  0  0  0  0
   -1.7775  -10.3922   10.2932 C   0  0  0  0  0  0  0  0  0  0  0  0
   -0.7672   -9.5373   10.6909 C   0  0  0  0  0  0  0  0  0  0  0  0
  1  2  1  0
  2  3  1  0
  3  4  2  0
  3  5  1  0
  5  6  2  0
  6  7  1  0
  7  8  1  0
  8  9  2  0
  9 10  1  0
 10 11  1  0
 11 12  2  0
 11 13  1  0
  7 14  1  0
 15 14  1  1
 15 16  1  0
 16 17  1  0
 17 18  2  0
 18 19  1  0
 19 20  1  0
 20 21  1  0
 19 22  2  0
 22 23  1  0
 23 24  2  0
 23 25  1  0
 25 26  1  0
 22 27  1  0
 16 28  1  1
 15 29  1  0
 29 30  1  0
 30 31  1  0
 31 32  1  0
 32 33  2  0
 33 34  1  0
 33 35  1  0
 35 36  2  0
 36 37  1  0
 37 38  2  0
  9  5  1  0
 24 17  1  0
 34 30  1  0
 38 32  1  0
M  CHG  1  13  -1
M  END
$$$$
