
     RDKit          3D

 38 41  0  0  0  0  0  0  0  0999 V2000
   -0.0915   -4.9952   18.4173 C   0  0  0  0  0  0  0  0  0  0  0  0
   -0.6624   -4.5713   17.1835 O   0  0  0  0  0  0  0  0  0  0  0  0
   -1.9704   -4.9144   16.9091 C   0  0  0  0  0  0  0  0  0  0  0  0
   -2.6156   -5.6386   17.6900 O   0  0  0  0  0  0  0  0  0  0  0  0
   -2.6533   -4.4433   15.6924 C   0  0  0  0  0  0  0  0  0  0  0  0
   -2.2273   -3.4717   14.8158 C   0  0  0  0  0  0  0  0  0  0  0  0
   -3.1102   -3.3314   13.8485 N   0  0  0  0  0  0  0  0  0  0  0  0
   -4.1154   -4.1883   14.0616 C   0  0  0  0  0  0  0  0  0  0  0  0
   -3.8653   -4.8988   15.2022 C   0  0  0  0  0  0  0  0  0  0  0  0
   -4.7053   -5.9565   15.8206 C   0  0  0  0  0  0  0  0  0  0  0  0
   -4.8569   -7.1149   14.9157 C   0  0  0  0  0  0  0  0  0  0  0  0
   -4.3520   -7.0981   13.7752 O   0  0  0  0  0  0  0  0  0  0  0  0
   -5.5597   -8.2357   15.3161 O   0  0  0  0  0  1  0  0  0  0  0  0
   -3.0973   -2.4121   12.6698 C   0  0  0  0  0  0  0  0  0  0  0  0
   -2.4849   -3.1496   11.5585 C   0  0  1  0  0  0  0  0  0  0  0  0
   -2.5654   -2.3755   10.2820 C   0  0  1  0  0  0  0  0  0  0  0  0
   -2.4405   -0.9158   10.3240 C   0  0  0  0  0  0  0  0  0  0  0  0
   -1.3416   -0.1487   10.0707 C   0  0  0  0  0  0  0  0  0  0  0  0
   -1.3415    1.2471   10.1766 C   0  0  0  0  0  0  0  0  0  0  0  0
   -0.2062    1.9897    9.9122 O   0  0  0  0  0  0  0  0  0  0  0  0
    1.0780    1.4776    9.6971 C   0  0  0  0  0  0  0  0  0  0  0  0
   -2.4768    1.9076   10.5475 C   0  0  0  0  0  0  0  0  0  0  0  0
   -3.6089    1.1682   10.8112 C   0  0  0  0  0  0  0  0  0  0  0  0
   -3.5931   -0.1740   10.7053 C   0  0  0  0  0  0  0  0  0  0  0  0
   -4.7668    1.8480   11.1896 O   0  0  0  0  0  0  0  0  0  0  0  0
   -5.9594    1.1993   11.5267 C   0  0  0  0  0  0  0  0  0  0  0  0
   -2.5283    3.3985   10.6768 C   0  0  0  0  0  0  0  0  0  0  0  0
   -1.5797   -2.8435    9.3733 O   0  0  0  0  0  0  0  0  0  0  0  0
   -1.2063   -3.8380   11.6380 C   0  0  0  0  0  0  0  0  0  0  0  0
   -0.9617   -5.0920   12.3012 C   0  0  0  0  0  0  0  0  0  0  0  0
   -1.5210   -6.3517   11.7347 C   0  0  0  0  0  0  0  0  0  0  0  0
   -0.9940   -7.3472   12.7376 C   0  0  0  0  0  0  0  0  0  0  0  0
    0.1981   -6.8539   13.2133 C   0  0  0  0  0  0  0  0  0  0  0  0
    0.4717   -5.5022   12.5751 C   0  0  0  0  0  0  0  0  0  0  0  0
    0.8827   -7.6123   14.1369 C   0  0  0  0  0  0  0  0  0  0  0  0
    0.3699   -8.8340   14.5635 C   0  0  0  0  0  0  0  0  0  0  0  0
   -0.8323   -9.2983   14.0640 C   0  0  0  0  0  0  0  0  0  0  0  0
   -1.5272   -8.5453   13.1365 C   0  0  0  0  0  0  0  0  0  0  0  0
  1  2  1  0
  2  3  1  0
  3  4  2  0
  3  5  1  0
  5  6  2  0
  6  7  1  0
  7  8  1  0
  8  9  2  0
  9 10  1  0
 10 11  1  0
 11 12  2  0
 11 13  1  0
  7 14  1  0
 15 14  1  1
 15 16  1  0
 16 17  1  0
 17 18  2  0
 18 19  1  0
 19 20  1  0
 20 21  1  0
 19 22  2  0
 22 23  1  0
 23 24  2  0
 23 25  1  0
 25 26  1  0
 22 27  1  0
 16 28  1  6
 15 29  1  0
 29 30  1  0
 30 31  1  0
 31 32  1  0
 32 33  2  0
 33 34  1  0
 33 35  1  0
 35 36  2  0
 36 37  1  0
 37 38  2  0
  9  5  1  0
 24 17  1  0
 34 30  1  0
 38 32  1  0
M  CHG  1  13  -1
M  END
$$$$
