
     RDKit          3D

 38 41  0  0  0  0  0  0  0  0999 V2000
   -7.3219    0.0648   12.9844 C   0  0  0  0  0  0  0  0  0  0  0  0
   -6.1499   -0.6916   12.6979 O   0  0  0  0  0  0  0  0  0  0  0  0
   -5.4310   -0.3890   11.5598 C   0  0  0  0  0  0  0  0  0  0  0  0
   -5.7670    0.5612   10.8286 O   0  0  0  0  0  0  0  0  0  0  0  0
   -4.2463   -1.1695   11.1645 C   0  0  0  0  0  0  0  0  0  0  0  0
   -3.7611   -2.3131   11.7565 C   0  0  0  0  0  0  0  0  0  0  0  0
   -2.6830   -2.7183   11.1174 N   0  0  0  0  0  0  0  0  0  0  0  0
   -2.4391   -1.8693   10.1125 C   0  0  0  0  0  0  0  0  0  0  0  0
   -3.3933   -0.8906   10.1104 C   0  0  0  0  0  0  0  0  0  0  0  0
   -3.5196    0.2581    9.1768 C   0  0  0  0  0  0  0  0  0  0  0  0
   -3.1060    1.5203    9.8244 C   0  0  0  0  0  0  0  0  0  0  0  0
   -2.8413    1.5500   11.0430 O   0  0  0  0  0  0  0  0  0  0  0  0
   -3.0052    2.6886    9.0928 O   0  0  0  0  0  1  0  0  0  0  0  0
   -1.8068   -3.9013   11.3774 C   0  0  0  0  0  0  0  0  0  0  0  0
   -0.9649   -3.5649   12.5315 C   0  0  1  0  0  0  0  0  0  0  0  0
   -0.5972   -4.7866   13.3111 C   0  0  1  0  0  0  0  0  0  0  0  0
   -1.4596   -5.2135   14.4166 C   0  0  0  0  0  0  0  0  0  0  0  0
   -2.6102   -5.9441   14.3643 C   0  0  0  0  0  0  0  0  0  0  0  0
   -3.3668   -6.2626   15.4981 C   0  0  0  0  0  0  0  0  0  0  0  0
   -4.5288   -7.0050   15.4037 O   0  0  0  0  0  0  0  0  0  0  0  0
   -5.1024   -7.4851   14.2213 C   0  0  0  0  0  0  0  0  0  0  0  0
   -2.9654   -5.8403   16.7323 C   0  0  0  0  0  0  0  0  0  0  0  0
   -1.8072   -5.1003   16.8273 C   0  0  0  0  0  0  0  0  0  0  0  0
   -1.0904   -4.8017   15.7273 C   0  0  0  0  0  0  0  0  0  0  0  0
   -1.4010   -4.6713   18.0911 O   0  0  0  0  0  0  0  0  0  0  0  0
   -0.2342   -3.9313   18.3095 C   0  0  0  0  0  0  0  0  0  0  0  0
   -3.7396   -6.1530   17.9752 C   0  0  0  0  0  0  0  0  0  0  0  0
   -0.4768   -5.8975   12.4348 O   0  0  0  0  0  0  0  0  0  0  0  0
    0.1664   -2.6523   12.4823 C   0  0  0  0  0  0  0  0  0  0  0  0
    0.1244   -1.2766   12.0605 C   0  0  0  0  0  0  0  0  0  0  0  0
   -0.6264   -0.2757   12.8698 C   0  0  0  0  0  0  0  0  0  0  0  0
   -0.3646    0.9680   12.0578 C   0  0  0  0  0  0  0  0  0  0  0  0
    0.8662    0.8151   11.4640 C   0  0  0  0  0  0  0  0  0  0  0  0
    1.4327   -0.5471   11.8281 C   0  0  0  0  0  0  0  0  0  0  0  0
    1.3326    1.8474   10.6807 C   0  0  0  0  0  0  0  0  0  0  0  0
    0.5702    2.9990   10.5067 C   0  0  0  0  0  0  0  0  0  0  0  0
   -0.6635    3.1176   11.1187 C   0  0  0  0  0  0  0  0  0  0  0  0
   -1.1408    2.0877   11.9070 C   0  0  0  0  0  0  0  0  0  0  0  0
  1  2  1  0
  2  3  1  0
  3  4  2  0
  3  5  1  0
  5  6  2  0
  6  7  1  0
  7  8  1  0
  8  9  2  0
  9 10  1  0
 10 11  1  0
 11 12  2  0
 11 13  1  0
  7 14  1  0
 15 14  1  6
 15 16  1  0
 16 17  1  0
 17 18  2  0
 18 19  1  0
 19 20  1  0
 20 21  1  0
 19 22  2  0
 22 23  1  0
 23 24  2  0
 23 25  1  0
 25 26  1  0
 22 27  1  0
 16 28  1  6
 15 29  1  0
 29 30  1  0
 30 31  1  0
 31 32  1  0
 32 33  2  0
 33 34  1  0
 33 35  1  0
 35 36  2  0
 36 37  1  0
 37 38  2  0
  9  5  1  0
 24 17  1  0
 34 30  1  0
 38 32  1  0
M  CHG  1  13  -1
M  END
$$$$
