
     RDKit          3D

 38 41  0  0  0  0  0  0  0  0999 V2000
    0.5331   -9.0378   16.5334 C   0  0  0  0  0  0  0  0  0  0  0  0
   -0.0035   -8.3139   15.4308 O   0  0  0  0  0  0  0  0  0  0  0  0
   -1.3700   -8.1364   15.3601 C   0  0  0  0  0  0  0  0  0  0  0  0
   -2.1143   -8.5597   16.2641 O   0  0  0  0  0  0  0  0  0  0  0  0
   -2.0011   -7.4451   14.2231 C   0  0  0  0  0  0  0  0  0  0  0  0
   -1.3743   -6.7688   13.2016 C   0  0  0  0  0  0  0  0  0  0  0  0
   -2.2765   -6.2854   12.3727 N   0  0  0  0  0  0  0  0  0  0  0  0
   -3.4911   -6.6248   12.8198 C   0  0  0  0  0  0  0  0  0  0  0  0
   -3.3590   -7.3487   13.9717 C   0  0  0  0  0  0  0  0  0  0  0  0
   -4.4371   -7.9313   14.8114 C   0  0  0  0  0  0  0  0  0  0  0  0
   -4.6883   -7.1022   16.0086 C   0  0  0  0  0  0  0  0  0  0  0  0
   -5.4763   -7.4906   16.8941 O   0  0  0  0  0  0  0  0  0  0  0  0
   -4.0558   -5.8837   16.1683 O   0  0  0  0  0  1  0  0  0  0  0  0
   -2.0939   -5.4861   11.1226 C   0  0  0  0  0  0  0  0  0  0  0  0
   -2.2938   -4.0774   11.4823 C   0  0  1  0  0  0  0  0  0  0  0  0
   -3.3605   -3.4481   10.6448 C   0  0  1  0  0  0  0  0  0  0  0  0
   -3.0798   -2.1788    9.9680 C   0  0  0  0  0  0  0  0  0  0  0  0
   -3.5279   -0.9297   10.2833 C   0  0  0  0  0  0  0  0  0  0  0  0
   -3.2116    0.2089    9.5331 C   0  0  0  0  0  0  0  0  0  0  0  0
   -3.6865    1.4583    9.8848 O   0  0  0  0  0  0  0  0  0  0  0  0
   -4.8440    1.7176   10.6269 C   0  0  0  0  0  0  0  0  0  0  0  0
   -2.4187    0.1041    8.4272 C   0  0  0  0  0  0  0  0  0  0  0  0
   -1.9448   -1.1409    8.0760 C   0  0  0  0  0  0  0  0  0  0  0  0
   -2.2583   -2.2269    8.8076 C   0  0  0  0  0  0  0  0  0  0  0  0
   -1.1345   -1.2427    6.9449 O   0  0  0  0  0  0  0  0  0  0  0  0
   -0.5753   -2.4491    6.5104 C   0  0  0  0  0  0  0  0  0  0  0  0
   -2.0525    1.2907    7.5905 C   0  0  0  0  0  0  0  0  0  0  0  0
   -3.7849   -4.3601    9.6425 O   0  0  0  0  0  0  0  0  0  0  0  0
   -2.3845   -3.5854   12.8480 C   0  0  0  0  0  0  0  0  0  0  0  0
   -1.8326   -2.3500   13.3394 C   0  0  0  0  0  0  0  0  0  0  0  0
   -2.3048   -1.0524   12.7793 C   0  0  0  0  0  0  0  0  0  0  0  0
   -1.4746   -0.0957   13.5978 C   0  0  0  0  0  0  0  0  0  0  0  0
   -1.2542   -0.6890   14.8185 C   0  0  0  0  0  0  0  0  0  0  0  0
   -1.8916   -2.0685   14.8277 C   0  0  0  0  0  0  0  0  0  0  0  0
   -0.5279    0.0162   15.7522 C   0  0  0  0  0  0  0  0  0  0  0  0
   -0.0405    1.2852   15.4528 C   0  0  0  0  0  0  0  0  0  0  0  0
   -0.2808    1.8503   14.2145 C   0  0  0  0  0  0  0  0  0  0  0  0
   -1.0089    1.1514   13.2704 C   0  0  0  0  0  0  0  0  0  0  0  0
  1  2  1  0
  2  3  1  0
  3  4  2  0
  3  5  1  0
  5  6  2  0
  6  7  1  0
  7  8  1  0
  8  9  2  0
  9 10  1  0
 10 11  1  0
 11 12  2  0
 11 13  1  0
  7 14  1  0
 15 14  1  1
 15 16  1  0
 16 17  1  0
 17 18  2  0
 18 19  1  0
 19 20  1  0
 20 21  1  0
 19 22  2  0
 22 23  1  0
 23 24  2  0
 23 25  1  0
 25 26  1  0
 22 27  1  0
 16 28  1  6
 15 29  1  0
 29 30  1  0
 30 31  1  0
 31 32  1  0
 32 33  2  0
 33 34  1  0
 33 35  1  0
 35 36  2  0
 36 37  1  0
 37 38  2  0
  9  5  1  0
 24 17  1  0
 34 30  1  0
 38 32  1  0
M  CHG  1  13  -1
M  END
$$$$
