
     RDKit          3D

 38 41  0  0  0  0  0  0  0  0999 V2000
   -0.4546   -5.7212   18.8330 C   0  0  0  0  0  0  0  0  0  0  0  0
   -0.6354   -5.5383   17.4324 O   0  0  0  0  0  0  0  0  0  0  0  0
   -1.4715   -6.4031   16.7564 C   0  0  0  0  0  0  0  0  0  0  0  0
   -1.9368   -7.4104   17.3216 O   0  0  0  0  0  0  0  0  0  0  0  0
   -1.8461   -6.1740   15.3507 C   0  0  0  0  0  0  0  0  0  0  0  0
   -1.3383   -5.2258   14.4924 C   0  0  0  0  0  0  0  0  0  0  0  0
   -1.9242   -5.3340   13.3177 N   0  0  0  0  0  0  0  0  0  0  0  0
   -2.8116   -6.3336   13.3747 C   0  0  0  0  0  0  0  0  0  0  0  0
   -2.7909   -6.8812   14.6269 C   0  0  0  0  0  0  0  0  0  0  0  0
   -3.6062   -8.0113   15.1418 C   0  0  0  0  0  0  0  0  0  0  0  0
   -2.9724   -9.3103   14.8347 C   0  0  0  0  0  0  0  0  0  0  0  0
   -2.1325   -9.4042   13.9173 O   0  0  0  0  0  0  0  0  0  0  0  0
   -3.2982  -10.4427   15.5572 O   0  0  0  0  0  1  0  0  0  0  0  0
   -1.7154   -4.5382   12.0696 C   0  0  0  0  0  0  0  0  0  0  0  0
   -2.7841   -3.5336   12.0187 C   0  0  1  0  0  0  0  0  0  0  0  0
   -2.6107   -2.6135   10.8531 C   0  0  1  0  0  0  0  0  0  0  0  0
   -1.9067   -1.3426   11.0464 C   0  0  0  0  0  0  0  0  0  0  0  0
   -1.3699   -0.8335   12.1923 C   0  0  0  0  0  0  0  0  0  0  0  0
   -0.7451    0.4175   12.2548 C   0  0  0  0  0  0  0  0  0  0  0  0
   -0.2138    0.8992   13.4363 O   0  0  0  0  0  0  0  0  0  0  0  0
   -0.5730    0.4899   14.7251 C   0  0  0  0  0  0  0  0  0  0  0  0
   -0.6483    1.1933   11.1361 C   0  0  0  0  0  0  0  0  0  0  0  0
   -1.1775    0.7138    9.9580 C   0  0  0  0  0  0  0  0  0  0  0  0
   -1.7760   -0.4915    9.9140 C   0  0  0  0  0  0  0  0  0  0  0  0
   -1.0758    1.5105    8.8173 O   0  0  0  0  0  0  0  0  0  0  0  0
   -1.9320    1.3859    7.7182 C   0  0  0  0  0  0  0  0  0  0  0  0
    0.0088    2.5388   11.1507 C   0  0  0  0  0  0  0  0  0  0  0  0
   -1.9443   -3.2932    9.7994 O   0  0  0  0  0  0  0  0  0  0  0  0
   -4.1955   -3.8286   12.2084 C   0  0  0  0  0  0  0  0  0  0  0  0
   -4.8461   -4.0703   13.4696 C   0  0  0  0  0  0  0  0  0  0  0  0
   -4.8021   -3.0318   14.5374 C   0  0  0  0  0  0  0  0  0  0  0  0
   -5.6083   -3.7226   15.6086 C   0  0  0  0  0  0  0  0  0  0  0  0
   -6.5216   -4.5308   14.9735 C   0  0  0  0  0  0  0  0  0  0  0  0
   -6.3178   -4.4331   13.4708 C   0  0  0  0  0  0  0  0  0  0  0  0
   -7.3929   -5.2534   15.7581 C   0  0  0  0  0  0  0  0  0  0  0  0
   -7.3360   -5.1569   17.1456 C   0  0  0  0  0  0  0  0  0  0  0  0
   -6.4038   -4.3345   17.7498 C   0  0  0  0  0  0  0  0  0  0  0  0
   -5.5251   -3.6048   16.9718 C   0  0  0  0  0  0  0  0  0  0  0  0
  1  2  1  0
  2  3  1  0
  3  4  2  0
  3  5  1  0
  5  6  2  0
  6  7  1  0
  7  8  1  0
  8  9  2  0
  9 10  1  0
 10 11  1  0
 11 12  2  0
 11 13  1  0
  7 14  1  0
 15 14  1  6
 15 16  1  0
 16 17  1  0
 17 18  2  0
 18 19  1  0
 19 20  1  0
 20 21  1  0
 19 22  2  0
 22 23  1  0
 23 24  2  0
 23 25  1  0
 25 26  1  0
 22 27  1  0
 16 28  1  6
 15 29  1  0
 29 30  1  0
 30 31  1  0
 31 32  1  0
 32 33  2  0
 33 34  1  0
 33 35  1  0
 35 36  2  0
 36 37  1  0
 37 38  2  0
  9  5  1  0
 24 17  1  0
 34 30  1  0
 38 32  1  0
M  CHG  1  13  -1
M  END
$$$$
