
     RDKit          3D

 38 41  0  0  0  0  0  0  0  0999 V2000
   -4.5233   -9.8324   15.7326 C   0  0  0  0  0  0  0  0  0  0  0  0
   -4.6815   -8.4720   15.3425 O   0  0  0  0  0  0  0  0  0  0  0  0
   -3.9020   -7.9858   14.3130 C   0  0  0  0  0  0  0  0  0  0  0  0
   -3.2301   -8.7581   13.6040 O   0  0  0  0  0  0  0  0  0  0  0  0
   -3.8318   -6.5461   14.0112 C   0  0  0  0  0  0  0  0  0  0  0  0
   -3.1783   -5.9411   12.9621 C   0  0  0  0  0  0  0  0  0  0  0  0
   -3.3460   -4.6365   13.0303 N   0  0  0  0  0  0  0  0  0  0  0  0
   -4.0970   -4.3589   14.1022 C   0  0  0  0  0  0  0  0  0  0  0  0
   -4.4191   -5.5250   14.7386 C   0  0  0  0  0  0  0  0  0  0  0  0
   -5.2353   -5.6979   15.9677 C   0  0  0  0  0  0  0  0  0  0  0  0
   -6.5887   -6.1953   15.6442 C   0  0  0  0  0  0  0  0  0  0  0  0
   -7.2555   -6.8166   16.4958 O   0  0  0  0  0  0  0  0  0  0  0  0
   -7.1389   -5.9814   14.3945 O   0  0  0  0  0  1  0  0  0  0  0  0
   -2.8365   -3.5597   12.1271 C   0  0  0  0  0  0  0  0  0  0  0  0
   -1.9515   -2.7094   12.9317 C   0  0  1  0  0  0  0  0  0  0  0  0
   -0.7138   -3.4431   13.3379 C   0  0  1  0  0  0  0  0  0  0  0  0
    0.1718   -2.8466   14.3419 C   0  0  0  0  0  0  0  0  0  0  0  0
    1.2162   -1.9898   14.1530 C   0  0  0  0  0  0  0  0  0  0  0  0
    2.0127   -1.5115   15.2000 C   0  0  0  0  0  0  0  0  0  0  0  0
    3.0637   -0.6445   14.9676 O   0  0  0  0  0  0  0  0  0  0  0  0
    3.3444   -0.0004   13.7577 C   0  0  0  0  0  0  0  0  0  0  0  0
    1.7624   -1.8977   16.4849 C   0  0  0  0  0  0  0  0  0  0  0  0
    0.7149   -2.7618   16.7174 C   0  0  0  0  0  0  0  0  0  0  0  0
   -0.0420   -3.2136   15.6996 C   0  0  0  0  0  0  0  0  0  0  0  0
    0.4629   -3.1533   18.0325 O   0  0  0  0  0  0  0  0  0  0  0  0
   -0.3855   -4.2143   18.3658 C   0  0  0  0  0  0  0  0  0  0  0  0
    2.5854   -1.4159   17.6393 C   0  0  0  0  0  0  0  0  0  0  0  0
   -1.0562   -4.7369   13.8127 O   0  0  0  0  0  0  0  0  0  0  0  0
   -1.6231   -1.3302   12.6074 C   0  0  0  0  0  0  0  0  0  0  0  0
   -2.2289   -0.5394   11.5682 C   0  0  0  0  0  0  0  0  0  0  0  0
   -3.6662   -0.1589   11.6687 C   0  0  0  0  0  0  0  0  0  0  0  0
   -3.8137    0.6462   10.4020 C   0  0  0  0  0  0  0  0  0  0  0  0
   -2.5942    1.2268   10.1440 C   0  0  0  0  0  0  0  0  0  0  0  0
   -1.5965    0.7890   11.2032 C   0  0  0  0  0  0  0  0  0  0  0  0
   -2.4916    2.0365    9.0346 C   0  0  0  0  0  0  0  0  0  0  0  0
   -3.5953    2.2481    8.2132 C   0  0  0  0  0  0  0  0  0  0  0  0
   -4.8058    1.6472    8.5030 C   0  0  0  0  0  0  0  0  0  0  0  0
   -4.9197    0.8331    9.6140 C   0  0  0  0  0  0  0  0  0  0  0  0
  1  2  1  0
  2  3  1  0
  3  4  2  0
  3  5  1  0
  5  6  2  0
  6  7  1  0
  7  8  1  0
  8  9  2  0
  9 10  1  0
 10 11  1  0
 11 12  2  0
 11 13  1  0
  7 14  1  0
 15 14  1  6
 15 16  1  0
 16 17  1  0
 17 18  2  0
 18 19  1  0
 19 20  1  0
 20 21  1  0
 19 22  2  0
 22 23  1  0
 23 24  2  0
 23 25  1  0
 25 26  1  0
 22 27  1  0
 16 28  1  1
 15 29  1  0
 29 30  1  0
 30 31  1  0
 31 32  1  0
 32 33  2  0
 33 34  1  0
 33 35  1  0
 35 36  2  0
 36 37  1  0
 37 38  2  0
  9  5  1  0
 24 17  1  0
 34 30  1  0
 38 32  1  0
M  CHG  1  13  -1
M  END
$$$$
