
     RDKit          3D

 38 41  0  0  0  0  0  0  0  0999 V2000
   -6.7238   -8.2289   13.8382 C   0  0  0  0  0  0  0  0  0  0  0  0
   -5.8018   -7.1573   13.6670 O   0  0  0  0  0  0  0  0  0  0  0  0
   -4.8315   -6.9616   14.6283 C   0  0  0  0  0  0  0  0  0  0  0  0
   -4.9527   -7.4561   15.7647 O   0  0  0  0  0  0  0  0  0  0  0  0
   -3.6221   -6.1671   14.3543 C   0  0  0  0  0  0  0  0  0  0  0  0
   -3.0699   -5.8784   13.1273 C   0  0  0  0  0  0  0  0  0  0  0  0
   -1.9905   -5.1417   13.2909 N   0  0  0  0  0  0  0  0  0  0  0  0
   -1.8113   -4.9332   14.6003 C   0  0  0  0  0  0  0  0  0  0  0  0
   -2.8095   -5.5575   15.2947 C   0  0  0  0  0  0  0  0  0  0  0  0
   -3.0120   -5.5940   16.7660 C   0  0  0  0  0  0  0  0  0  0  0  0
   -2.4563   -6.8322   17.3507 C   0  0  0  0  0  0  0  0  0  0  0  0
   -2.4871   -7.9034   16.7125 O   0  0  0  0  0  0  0  0  0  0  0  0
   -1.8936   -6.8254   18.6132 O   0  0  0  0  0  1  0  0  0  0  0  0
   -1.0542   -4.5796   12.2699 C   0  0  0  0  0  0  0  0  0  0  0  0
   -1.5827   -3.2668   11.8813 C   0  0  1  0  0  0  0  0  0  0  0  0
   -1.0377   -2.8306   10.5592 C   0  0  1  0  0  0  0  0  0  0  0  0
   -0.5978   -1.4426   10.3920 C   0  0  0  0  0  0  0  0  0  0  0  0
   -1.1424   -0.4662    9.6107 C   0  0  0  0  0  0  0  0  0  0  0  0
   -0.6060    0.8229    9.5116 C   0  0  0  0  0  0  0  0  0  0  0  0
   -1.1870    1.7851    8.7074 O   0  0  0  0  0  0  0  0  0  0  0  0
   -2.4940    1.7585    8.2088 C   0  0  0  0  0  0  0  0  0  0  0  0
    0.5141    1.1565   10.2164 C   0  0  0  0  0  0  0  0  0  0  0  0
    1.0937    0.1980   11.0184 C   0  0  0  0  0  0  0  0  0  0  0  0
    0.5661   -1.0379   11.1028 C   0  0  0  0  0  0  0  0  0  0  0  0
    2.2384    0.5440   11.7369 O   0  0  0  0  0  0  0  0  0  0  0  0
    3.1710   -0.3953   12.1891 C   0  0  0  0  0  0  0  0  0  0  0  0
    1.1276    2.5205   10.1439 C   0  0  0  0  0  0  0  0  0  0  0  0
    0.0616   -3.6536   10.1976 O   0  0  0  0  0  0  0  0  0  0  0  0
   -2.9811   -2.8818   11.9895 C   0  0  0  0  0  0  0  0  0  0  0  0
   -3.4730   -1.5877   12.3839 C   0  0  0  0  0  0  0  0  0  0  0  0
   -4.9157   -1.2584   12.2094 C   0  0  0  0  0  0  0  0  0  0  0  0
   -4.9337    0.1441   12.7639 C   0  0  0  0  0  0  0  0  0  0  0  0
   -3.9545    0.2140   13.7267 C   0  0  0  0  0  0  0  0  0  0  0  0
   -3.2333   -1.1212   13.8061 C   0  0  0  0  0  0  0  0  0  0  0  0
   -3.7969    1.4078   14.3952 C   0  0  0  0  0  0  0  0  0  0  0  0
   -4.6099    2.4965   14.0928 C   0  0  0  0  0  0  0  0  0  0  0  0
   -5.5839    2.3900   13.1179 C   0  0  0  0  0  0  0  0  0  0  0  0
   -5.7507    1.1965   12.4413 C   0  0  0  0  0  0  0  0  0  0  0  0
  1  2  1  0
  2  3  1  0
  3  4  2  0
  3  5  1  0
  5  6  2  0
  6  7  1  0
  7  8  1  0
  8  9  2  0
  9 10  1  0
 10 11  1  0
 11 12  2  0
 11 13  1  0
  7 14  1  0
 15 14  1  6
 15 16  1  0
 16 17  1  0
 17 18  2  0
 18 19  1  0
 19 20  1  0
 20 21  1  0
 19 22  2  0
 22 23  1  0
 23 24  2  0
 23 25  1  0
 25 26  1  0
 22 27  1  0
 16 28  1  1
 15 29  1  0
 29 30  1  0
 30 31  1  0
 31 32  1  0
 32 33  2  0
 33 34  1  0
 33 35  1  0
 35 36  2  0
 36 37  1  0
 37 38  2  0
  9  5  1  0
 24 17  1  0
 34 30  1  0
 38 32  1  0
M  CHG  1  13  -1
M  END
$$$$
