
     RDKit          3D

 38 41  0  0  0  0  0  0  0  0999 V2000
   -1.8473   -5.1653   18.4794 C   0  0  0  0  0  0  0  0  0  0  0  0
   -1.6465   -5.1053   17.0709 O   0  0  0  0  0  0  0  0  0  0  0  0
   -2.4090   -5.9209   16.2603 C   0  0  0  0  0  0  0  0  0  0  0  0
   -3.2600   -6.6875   16.7488 O   0  0  0  0  0  0  0  0  0  0  0  0
   -2.2506   -5.9199   14.7961 C   0  0  0  0  0  0  0  0  0  0  0  0
   -1.4163   -5.1246   14.0445 C   0  0  0  0  0  0  0  0  0  0  0  0
   -1.5572   -5.4182   12.7683 N   0  0  0  0  0  0  0  0  0  0  0  0
   -2.4676   -6.3919   12.6531 C   0  0  0  0  0  0  0  0  0  0  0  0
   -2.9221   -6.7306   13.8969 C   0  0  0  0  0  0  0  0  0  0  0  0
   -3.9342   -7.7594   14.2493 C   0  0  0  0  0  0  0  0  0  0  0  0
   -5.2065   -7.1352   14.6681 C   0  0  0  0  0  0  0  0  0  0  0  0
   -5.2862   -5.8997   14.8197 O   0  0  0  0  0  0  0  0  0  0  0  0
   -6.3290   -7.9080   14.8990 O   0  0  0  0  0  1  0  0  0  0  0  0
   -0.8744   -4.8349   11.5731 C   0  0  0  0  0  0  0  0  0  0  0  0
   -1.4352   -3.4937   11.3720 C   0  0  1  0  0  0  0  0  0  0  0  0
   -0.8316   -2.8249   10.1789 C   0  0  1  0  0  0  0  0  0  0  0  0
   -0.5078   -1.3972   10.2493 C   0  0  0  0  0  0  0  0  0  0  0  0
    0.6281   -0.8049   10.7176 C   0  0  0  0  0  0  0  0  0  0  0  0
    0.8054    0.5829   10.7616 C   0  0  0  0  0  0  0  0  0  0  0  0
    1.9718    1.1453   11.2446 O   0  0  0  0  0  0  0  0  0  0  0  0
    3.0143    0.4582   11.8760 C   0  0  0  0  0  0  0  0  0  0  0  0
   -0.1830    1.4155   10.3227 C   0  0  0  0  0  0  0  0  0  0  0  0
   -1.3459    0.8558    9.8409 C   0  0  0  0  0  0  0  0  0  0  0  0
   -1.5017   -0.4812    9.8054 C   0  0  0  0  0  0  0  0  0  0  0  0
   -2.3530    1.7112    9.3932 O   0  0  0  0  0  0  0  0  0  0  0  0
   -3.4582    1.2723    8.6566 C   0  0  0  0  0  0  0  0  0  0  0  0
   -0.0433    2.9062   10.3499 C   0  0  0  0  0  0  0  0  0  0  0  0
    0.3624   -3.4963    9.8047 O   0  0  0  0  0  0  0  0  0  0  0  0
   -2.8529   -3.1783   11.4495 C   0  0  0  0  0  0  0  0  0  0  0  0
   -3.4915   -2.4069   12.4836 C   0  0  0  0  0  0  0  0  0  0  0  0
   -2.8513   -1.1550   12.9770 C   0  0  0  0  0  0  0  0  0  0  0  0
   -3.8728   -0.7231   13.9991 C   0  0  0  0  0  0  0  0  0  0  0  0
   -5.0985   -1.1690   13.5636 C   0  0  0  0  0  0  0  0  0  0  0  0
   -4.9189   -1.9441   12.2690 C   0  0  0  0  0  0  0  0  0  0  0  0
   -6.2001   -0.8701   14.3343 C   0  0  0  0  0  0  0  0  0  0  0  0
   -6.0587   -0.1410   15.5116 C   0  0  0  0  0  0  0  0  0  0  0  0
   -4.8104    0.2905   15.9190 C   0  0  0  0  0  0  0  0  0  0  0  0
   -3.6984   -0.0037   15.1528 C   0  0  0  0  0  0  0  0  0  0  0  0
  1  2  1  0
  2  3  1  0
  3  4  2  0
  3  5  1  0
  5  6  2  0
  6  7  1  0
  7  8  1  0
  8  9  2  0
  9 10  1  0
 10 11  1  0
 11 12  2  0
 11 13  1  0
  7 14  1  0
 15 14  1  6
 15 16  1  0
 16 17  1  0
 17 18  2  0
 18 19  1  0
 19 20  1  0
 20 21  1  0
 19 22  2  0
 22 23  1  0
 23 24  2  0
 23 25  1  0
 25 26  1  0
 22 27  1  0
 16 28  1  1
 15 29  1  0
 29 30  1  0
 30 31  1  0
 31 32  1  0
 32 33  2  0
 33 34  1  0
 33 35  1  0
 35 36  2  0
 36 37  1  0
 37 38  2  0
  9  5  1  0
 24 17  1  0
 34 30  1  0
 38 32  1  0
M  CHG  1  13  -1
M  END
$$$$
