
     RDKit          3D

 38 41  0  0  0  0  0  0  0  0999 V2000
   -7.3158   -7.0196   13.7064 C   0  0  0  0  0  0  0  0  0  0  0  0
   -6.0084   -6.4980   13.4912 O   0  0  0  0  0  0  0  0  0  0  0  0
   -4.9431   -7.1056   14.1233 C   0  0  0  0  0  0  0  0  0  0  0  0
   -5.1300   -8.0144   14.9537 O   0  0  0  0  0  0  0  0  0  0  0  0
   -3.5521   -6.7093   13.8456 C   0  0  0  0  0  0  0  0  0  0  0  0
   -3.1180   -5.7095   13.0056 C   0  0  0  0  0  0  0  0  0  0  0  0
   -1.8019   -5.6590   13.0220 N   0  0  0  0  0  0  0  0  0  0  0  0
   -1.3496   -6.6036   13.8546 C   0  0  0  0  0  0  0  0  0  0  0  0
   -2.4123   -7.2787   14.3869 C   0  0  0  0  0  0  0  0  0  0  0  0
   -2.3849   -8.4040   15.3564 C   0  0  0  0  0  0  0  0  0  0  0  0
   -2.3176   -7.9090   16.7471 C   0  0  0  0  0  0  0  0  0  0  0  0
   -3.1034   -7.0251   17.1436 O   0  0  0  0  0  0  0  0  0  0  0  0
   -1.3844   -8.4156   17.6319 O   0  0  0  0  0  1  0  0  0  0  0  0
   -0.8719   -4.7503   12.2844 C   0  0  0  0  0  0  0  0  0  0  0  0
   -1.3066   -3.3762   12.5616 C   0  0  1  0  0  0  0  0  0  0  0  0
   -0.9107   -2.9477   13.9382 C   0  0  1  0  0  0  0  0  0  0  0  0
   -0.7509   -1.5188   14.2220 C   0  0  0  0  0  0  0  0  0  0  0  0
   -1.7079   -0.6057   14.5548 C   0  0  0  0  0  0  0  0  0  0  0  0
   -1.4306    0.7491   14.7721 C   0  0  0  0  0  0  0  0  0  0  0  0
   -2.4290    1.6442   15.1070 O   0  0  0  0  0  0  0  0  0  0  0  0
   -3.7956    1.3560   15.1911 C   0  0  0  0  0  0  0  0  0  0  0  0
   -0.1534    1.2157   14.6556 C   0  0  0  0  0  0  0  0  0  0  0  0
    0.8424    0.3242   14.3219 C   0  0  0  0  0  0  0  0  0  0  0  0
    0.5598   -0.9760   14.1155 C   0  0  0  0  0  0  0  0  0  0  0  0
    2.1463    0.8061   14.2043 O   0  0  0  0  0  0  0  0  0  0  0  0
    3.2589   -0.0273   14.0484 C   0  0  0  0  0  0  0  0  0  0  0  0
    0.1951    2.6552   14.8763 C   0  0  0  0  0  0  0  0  0  0  0  0
   -1.8428   -3.4502   14.8844 O   0  0  0  0  0  0  0  0  0  0  0  0
   -1.1519   -2.2653   11.6358 C   0  0  0  0  0  0  0  0  0  0  0  0
   -2.1591   -1.7703   10.7342 C   0  0  0  0  0  0  0  0  0  0  0  0
   -1.9249   -0.5042    9.9842 C   0  0  0  0  0  0  0  0  0  0  0  0
   -3.2078   -0.4256    9.1951 C   0  0  0  0  0  0  0  0  0  0  0  0
   -3.6238   -1.7157    8.9642 C   0  0  0  0  0  0  0  0  0  0  0  0
   -2.6565   -2.6808    9.6291 C   0  0  0  0  0  0  0  0  0  0  0  0
   -4.7774   -1.8963    8.2338 C   0  0  0  0  0  0  0  0  0  0  0  0
   -5.4858   -0.7983    7.7540 C   0  0  0  0  0  0  0  0  0  0  0  0
   -5.0381    0.4848    8.0062 C   0  0  0  0  0  0  0  0  0  0  0  0
   -3.8815    0.6772    8.7378 C   0  0  0  0  0  0  0  0  0  0  0  0
  1  2  1  0
  2  3  1  0
  3  4  2  0
  3  5  1  0
  5  6  2  0
  6  7  1  0
  7  8  1  0
  8  9  2  0
  9 10  1  0
 10 11  1  0
 11 12  2  0
 11 13  1  0
  7 14  1  0
 15 14  1  6
 15 16  1  0
 16 17  1  0
 17 18  2  0
 18 19  1  0
 19 20  1  0
 20 21  1  0
 19 22  2  0
 22 23  1  0
 23 24  2  0
 23 25  1  0
 25 26  1  0
 22 27  1  0
 16 28  1  1
 15 29  1  0
 29 30  1  0
 30 31  1  0
 31 32  1  0
 32 33  2  0
 33 34  1  0
 33 35  1  0
 35 36  2  0
 36 37  1  0
 37 38  2  0
  9  5  1  0
 24 17  1  0
 34 30  1  0
 38 32  1  0
M  CHG  1  13  -1
M  END
$$$$
