
     RDKit          3D

 38 41  0  0  0  0  0  0  0  0999 V2000
   -2.3223   -9.7630   12.2576 C   0  0  0  0  0  0  0  0  0  0  0  0
   -2.2176   -8.3630   12.4960 O   0  0  0  0  0  0  0  0  0  0  0  0
   -2.7128   -7.8564   13.6800 C   0  0  0  0  0  0  0  0  0  0  0  0
   -3.1956   -8.6127   14.5434 O   0  0  0  0  0  0  0  0  0  0  0  0
   -2.6917   -6.4128   13.9709 C   0  0  0  0  0  0  0  0  0  0  0  0
   -1.9424   -5.4432   13.3449 C   0  0  0  0  0  0  0  0  0  0  0  0
   -2.1977   -4.2696   13.8856 N   0  0  0  0  0  0  0  0  0  0  0  0
   -3.1007   -4.4363   14.8587 C   0  0  0  0  0  0  0  0  0  0  0  0
   -3.4325   -5.7597   14.9411 C   0  0  0  0  0  0  0  0  0  0  0  0
   -4.3933   -6.4028   15.8739 C   0  0  0  0  0  0  0  0  0  0  0  0
   -3.7357   -6.7775   17.1431 C   0  0  0  0  0  0  0  0  0  0  0  0
   -2.6655   -6.2362   17.4858 O   0  0  0  0  0  0  0  0  0  0  0  0
   -4.2938   -7.7327   17.9716 O   0  0  0  0  0  1  0  0  0  0  0  0
   -1.6394   -2.9233   13.5533 C   0  0  0  0  0  0  0  0  0  0  0  0
   -1.2804   -2.9481   12.1305 C   0  0  1  0  0  0  0  0  0  0  0  0
   -2.4952   -2.8791   11.2617 C   0  0  1  0  0  0  0  0  0  0  0  0
   -3.2115   -1.6066   11.1370 C   0  0  0  0  0  0  0  0  0  0  0  0
   -3.8855   -0.9123   12.0983 C   0  0  0  0  0  0  0  0  0  0  0  0
   -4.5618    0.2866   11.8443 C   0  0  0  0  0  0  0  0  0  0  0  0
   -5.2348    0.9604   12.8459 O   0  0  0  0  0  0  0  0  0  0  0  0
   -4.8983    0.9614   14.2040 C   0  0  0  0  0  0  0  0  0  0  0  0
   -4.5687    0.8180   10.5872 C   0  0  0  0  0  0  0  0  0  0  0  0
   -3.8980    0.1470    9.5882 C   0  0  0  0  0  0  0  0  0  0  0  0
   -3.2524   -1.0056    9.8482 C   0  0  0  0  0  0  0  0  0  0  0  0
   -3.9077    0.6945    8.3050 O   0  0  0  0  0  0  0  0  0  0  0  0
   -3.3709    0.0415    7.1905 C   0  0  0  0  0  0  0  0  0  0  0  0
   -5.2780    2.0964   10.2634 C   0  0  0  0  0  0  0  0  0  0  0  0
   -2.1675   -3.2940    9.9438 O   0  0  0  0  0  0  0  0  0  0  0  0
   -0.2080   -2.1612   11.5422 C   0  0  0  0  0  0  0  0  0  0  0  0
    0.7347   -1.3459   12.2624 C   0  0  0  0  0  0  0  0  0  0  0  0
    1.8257   -0.6479   11.5256 C   0  0  0  0  0  0  0  0  0  0  0  0
    2.5047    0.0602   12.6711 C   0  0  0  0  0  0  0  0  0  0  0  0
    1.5395    0.3308   13.6123 C   0  0  0  0  0  0  0  0  0  0  0  0
    0.2076   -0.2273   13.1392 C   0  0  0  0  0  0  0  0  0  0  0  0
    1.9254    1.0009   14.7520 C   0  0  0  0  0  0  0  0  0  0  0  0
    3.2522    1.3829   14.9286 C   0  0  0  0  0  0  0  0  0  0  0  0
    4.1960    1.0932   13.9612 C   0  0  0  0  0  0  0  0  0  0  0  0
    3.8193    0.4216   12.8137 C   0  0  0  0  0  0  0  0  0  0  0  0
  1  2  1  0
  2  3  1  0
  3  4  2  0
  3  5  1  0
  5  6  2  0
  6  7  1  0
  7  8  1  0
  8  9  2  0
  9 10  1  0
 10 11  1  0
 11 12  2  0
 11 13  1  0
  7 14  1  0
 15 14  1  1
 15 16  1  0
 16 17  1  0
 17 18  2  0
 18 19  1  0
 19 20  1  0
 20 21  1  0
 19 22  2  0
 22 23  1  0
 23 24  2  0
 23 25  1  0
 25 26  1  0
 22 27  1  0
 16 28  1  6
 15 29  1  0
 29 30  1  0
 30 31  1  0
 31 32  1  0
 32 33  2  0
 33 34  1  0
 33 35  1  0
 35 36  2  0
 36 37  1  0
 37 38  2  0
  9  5  1  0
 24 17  1  0
 34 30  1  0
 38 32  1  0
M  CHG  1  13  -1
M  END
$$$$
