
     RDKit          3D

 38 41  0  0  0  0  0  0  0  0999 V2000
   -5.5633   -5.4911   15.9527 C   0  0  0  0  0  0  0  0  0  0  0  0
   -4.6603   -4.9463   14.9959 O   0  0  0  0  0  0  0  0  0  0  0  0
   -3.7349   -4.0139   15.4180 C   0  0  0  0  0  0  0  0  0  0  0  0
   -3.6674   -3.6815   16.6161 O   0  0  0  0  0  0  0  0  0  0  0  0
   -2.7960   -3.3778   14.4785 C   0  0  0  0  0  0  0  0  0  0  0  0
   -2.5716   -3.7131   13.1629 C   0  0  0  0  0  0  0  0  0  0  0  0
   -1.6578   -2.9134   12.6527 N   0  0  0  0  0  0  0  0  0  0  0  0
   -1.2683   -2.0524   13.5999 C   0  0  0  0  0  0  0  0  0  0  0  0
   -1.9565   -2.3115   14.7521 C   0  0  0  0  0  0  0  0  0  0  0  0
   -1.8496   -1.6080   16.0562 C   0  0  0  0  0  0  0  0  0  0  0  0
   -0.7593   -2.1717   16.8791 C   0  0  0  0  0  0  0  0  0  0  0  0
    0.3115   -2.5323   16.3507 O   0  0  0  0  0  0  0  0  0  0  0  0
   -0.9063   -2.3093   18.2465 O   0  0  0  0  0  1  0  0  0  0  0  0
   -1.0812   -2.8791   11.2739 C   0  0  0  0  0  0  0  0  0  0  0  0
   -2.1238   -3.3636   10.3617 C   0  0  1  0  0  0  0  0  0  0  0  0
   -2.2586   -2.4739    9.1679 C   0  0  1  0  0  0  0  0  0  0  0  0
   -2.4856   -1.0400    9.3690 C   0  0  0  0  0  0  0  0  0  0  0  0
   -3.6156   -0.4104    9.8016 C   0  0  0  0  0  0  0  0  0  0  0  0
   -3.7182    0.9803    9.9227 C   0  0  0  0  0  0  0  0  0  0  0  0
   -4.8820    1.5812   10.3642 O   0  0  0  0  0  0  0  0  0  0  0  0
   -6.1032    0.9373   10.5916 C   0  0  0  0  0  0  0  0  0  0  0  0
   -2.6575    1.7775    9.6032 C   0  0  0  0  0  0  0  0  0  0  0  0
   -1.4971    1.1794    9.1632 C   0  0  0  0  0  0  0  0  0  0  0  0
   -1.4140   -0.1599    9.0515 C   0  0  0  0  0  0  0  0  0  0  0  0
   -0.4156    1.9985    8.8381 O   0  0  0  0  0  0  0  0  0  0  0  0
    0.8451    1.5003    8.4932 C   0  0  0  0  0  0  0  0  0  0  0  0
   -2.7168    3.2696    9.7140 C   0  0  0  0  0  0  0  0  0  0  0  0
   -1.1061   -2.5935    8.3469 O   0  0  0  0  0  0  0  0  0  0  0  0
   -2.2814   -4.7530    9.9617 C   0  0  0  0  0  0  0  0  0  0  0  0
   -2.2724   -5.8919   10.8420 C   0  0  0  0  0  0  0  0  0  0  0  0
   -3.3908   -6.0925   11.8061 C   0  0  0  0  0  0  0  0  0  0  0  0
   -2.9468   -7.3773   12.4594 C   0  0  0  0  0  0  0  0  0  0  0  0
   -2.2361   -8.0873   11.5205 C   0  0  0  0  0  0  0  0  0  0  0  0
   -2.1512   -7.2769   10.2379 C   0  0  0  0  0  0  0  0  0  0  0  0
   -1.7429   -9.3198   11.8872 C   0  0  0  0  0  0  0  0  0  0  0  0
   -1.9655   -9.8141   13.1692 C   0  0  0  0  0  0  0  0  0  0  0  0
   -2.6842   -9.0720   14.0876 C   0  0  0  0  0  0  0  0  0  0  0  0
   -3.1837   -7.8341   13.7300 C   0  0  0  0  0  0  0  0  0  0  0  0
  1  2  1  0
  2  3  1  0
  3  4  2  0
  3  5  1  0
  5  6  2  0
  6  7  1  0
  7  8  1  0
  8  9  2  0
  9 10  1  0
 10 11  1  0
 11 12  2  0
 11 13  1  0
  7 14  1  0
 15 14  1  6
 15 16  1  0
 16 17  1  0
 17 18  2  0
 18 19  1  0
 19 20  1  0
 20 21  1  0
 19 22  2  0
 22 23  1  0
 23 24  2  0
 23 25  1  0
 25 26  1  0
 22 27  1  0
 16 28  1  1
 15 29  1  0
 29 30  1  0
 30 31  1  0
 31 32  1  0
 32 33  2  0
 33 34  1  0
 33 35  1  0
 35 36  2  0
 36 37  1  0
 37 38  2  0
  9  5  1  0
 24 17  1  0
 34 30  1  0
 38 32  1  0
M  CHG  1  13  -1
M  END
$$$$
