
     RDKit          3D

 38 41  0  0  0  0  0  0  0  0999 V2000
   -7.4118   -6.6257   15.6724 C   0  0  0  0  0  0  0  0  0  0  0  0
   -6.3036   -6.1808   14.8967 O   0  0  0  0  0  0  0  0  0  0  0  0
   -5.1538   -6.9436   14.8904 C   0  0  0  0  0  0  0  0  0  0  0  0
   -5.0597   -7.9589   15.6051 O   0  0  0  0  0  0  0  0  0  0  0  0
   -3.9993   -6.5930   14.0460 C   0  0  0  0  0  0  0  0  0  0  0  0
   -3.9834   -5.7537   12.9556 C   0  0  0  0  0  0  0  0  0  0  0  0
   -2.7634   -5.6923   12.4630 N   0  0  0  0  0  0  0  0  0  0  0  0
   -1.9660   -6.4727   13.2014 C   0  0  0  0  0  0  0  0  0  0  0  0
   -2.7016   -7.0507   14.1979 C   0  0  0  0  0  0  0  0  0  0  0  0
   -2.2332   -7.9877   15.2513 C   0  0  0  0  0  0  0  0  0  0  0  0
   -2.4347   -9.3936   14.8431 C   0  0  0  0  0  0  0  0  0  0  0  0
   -3.5364   -9.9521   15.0173 O   0  0  0  0  0  0  0  0  0  0  0  0
   -1.4079  -10.1137   14.2622 O   0  0  0  0  0  1  0  0  0  0  0  0
   -2.2439   -4.9213   11.2922 C   0  0  0  0  0  0  0  0  0  0  0  0
   -1.7467   -3.6411   11.8094 C   0  0  1  0  0  0  0  0  0  0  0  0
   -0.8297   -2.9787   10.8319 C   0  0  1  0  0  0  0  0  0  0  0  0
   -1.2482   -1.7251   10.1981 C   0  0  0  0  0  0  0  0  0  0  0  0
   -0.9843   -0.4453   10.5888 C   0  0  0  0  0  0  0  0  0  0  0  0
   -1.4720    0.6780    9.9106 C   0  0  0  0  0  0  0  0  0  0  0  0
   -1.1830    1.9599   10.3389 O   0  0  0  0  0  0  0  0  0  0  0  0
   -0.0980    2.3329   11.1397 C   0  0  0  0  0  0  0  0  0  0  0  0
   -2.2513    0.5251    8.8007 C   0  0  0  0  0  0  0  0  0  0  0  0
   -2.5397   -0.7523    8.3730 C   0  0  0  0  0  0  0  0  0  0  0  0
   -2.0635   -1.8229    9.0364 C   0  0  0  0  0  0  0  0  0  0  0  0
   -3.3363   -0.9033    7.2377 O   0  0  0  0  0  0  0  0  0  0  0  0
   -3.4029   -2.0912    6.5021 C   0  0  0  0  0  0  0  0  0  0  0  0
   -2.7985    1.6936    8.0409 C   0  0  0  0  0  0  0  0  0  0  0  0
    0.4258   -2.7266   11.4455 O   0  0  0  0  0  0  0  0  0  0  0  0
   -2.5789   -2.6415   12.4603 C   0  0  0  0  0  0  0  0  0  0  0  0
   -2.8869   -2.5835   13.8653 C   0  0  0  0  0  0  0  0  0  0  0  0
   -1.7832   -2.5036   14.8634 C   0  0  0  0  0  0  0  0  0  0  0  0
   -2.5863   -2.4481   16.1387 C   0  0  0  0  0  0  0  0  0  0  0  0
   -3.7763   -1.8253   15.8440 C   0  0  0  0  0  0  0  0  0  0  0  0
   -3.8139   -1.4919   14.3619 C   0  0  0  0  0  0  0  0  0  0  0  0
   -4.6744   -1.6399   16.8715 C   0  0  0  0  0  0  0  0  0  0  0  0
   -4.3714   -2.0752   18.1585 C   0  0  0  0  0  0  0  0  0  0  0  0
   -3.1652   -2.6984   18.4179 C   0  0  0  0  0  0  0  0  0  0  0  0
   -2.2567   -2.8891   17.3941 C   0  0  0  0  0  0  0  0  0  0  0  0
  1  2  1  0
  2  3  1  0
  3  4  2  0
  3  5  1  0
  5  6  2  0
  6  7  1  0
  7  8  1  0
  8  9  2  0
  9 10  1  0
 10 11  1  0
 11 12  2  0
 11 13  1  0
  7 14  1  0
 15 14  1  6
 15 16  1  0
 16 17  1  0
 17 18  2  0
 18 19  1  0
 19 20  1  0
 20 21  1  0
 19 22  2  0
 22 23  1  0
 23 24  2  0
 23 25  1  0
 25 26  1  0
 22 27  1  0
 16 28  1  1
 15 29  1  0
 29 30  1  0
 30 31  1  0
 31 32  1  0
 32 33  2  0
 33 34  1  0
 33 35  1  0
 35 36  2  0
 36 37  1  0
 37 38  2  0
  9  5  1  0
 24 17  1  0
 34 30  1  0
 38 32  1  0
M  CHG  1  13  -1
M  END
$$$$
