
     RDKit          3D

 38 41  0  0  0  0  0  0  0  0999 V2000
   -7.7484   -4.7585   15.6804 C   0  0  0  0  0  0  0  0  0  0  0  0
   -6.3672   -4.7974   15.3364 O   0  0  0  0  0  0  0  0  0  0  0  0
   -5.8676   -5.9367   14.7394 C   0  0  0  0  0  0  0  0  0  0  0  0
   -6.5890   -6.9384   14.5766 O   0  0  0  0  0  0  0  0  0  0  0  0
   -4.4728   -6.0161   14.2735 C   0  0  0  0  0  0  0  0  0  0  0  0
   -3.4942   -5.0560   14.3923 C   0  0  0  0  0  0  0  0  0  0  0  0
   -2.3756   -5.4960   13.8537 N   0  0  0  0  0  0  0  0  0  0  0  0
   -2.5877   -6.7286   13.3784 C   0  0  0  0  0  0  0  0  0  0  0  0
   -3.8842   -7.0865   13.6221 C   0  0  0  0  0  0  0  0  0  0  0  0
   -4.5594   -8.3625   13.2717 C   0  0  0  0  0  0  0  0  0  0  0  0
   -4.3002   -9.4010   14.2905 C   0  0  0  0  0  0  0  0  0  0  0  0
   -3.5375   -9.1705   15.2502 O   0  0  0  0  0  0  0  0  0  0  0  0
   -4.8972  -10.6442   14.1984 O   0  0  0  0  0  1  0  0  0  0  0  0
   -1.0440   -4.8267   13.7370 C   0  0  0  0  0  0  0  0  0  0  0  0
   -1.1946   -3.7412   12.7609 C   0  0  1  0  0  0  0  0  0  0  0  0
   -0.0267   -2.8086   12.7999 C   0  0  1  0  0  0  0  0  0  0  0  0
   -0.1600   -1.5277   13.4995 C   0  0  0  0  0  0  0  0  0  0  0  0
   -0.4445   -1.3024   14.8143 C   0  0  0  0  0  0  0  0  0  0  0  0
   -0.5775   -0.0202   15.3599 C   0  0  0  0  0  0  0  0  0  0  0  0
   -0.8676    0.1668   16.6982 O   0  0  0  0  0  0  0  0  0  0  0  0
   -1.1883   -0.8385   17.6170 C   0  0  0  0  0  0  0  0  0  0  0  0
   -0.4210    1.0817   14.5699 C   0  0  0  0  0  0  0  0  0  0  0  0
   -0.1317    0.8961   13.2358 C   0  0  0  0  0  0  0  0  0  0  0  0
   -0.0073   -0.3437   12.7257 C   0  0  0  0  0  0  0  0  0  0  0  0
    0.0276    2.0256   12.4327 O   0  0  0  0  0  0  0  0  0  0  0  0
    0.7937    2.0304   11.2623 C   0  0  0  0  0  0  0  0  0  0  0  0
   -0.5545    2.4741   15.1044 C   0  0  0  0  0  0  0  0  0  0  0  0
    1.0961   -3.4682   13.3661 O   0  0  0  0  0  0  0  0  0  0  0  0
   -1.6291   -3.9302   11.3858 C   0  0  0  0  0  0  0  0  0  0  0  0
   -2.6565   -3.1788   10.7135 C   0  0  0  0  0  0  0  0  0  0  0  0
   -2.5048   -1.7066   10.5399 C   0  0  0  0  0  0  0  0  0  0  0  0
   -3.7783   -1.3978    9.7933 C   0  0  0  0  0  0  0  0  0  0  0  0
   -4.0952   -2.5108    9.0506 C   0  0  0  0  0  0  0  0  0  0  0  0
   -3.0696   -3.6000    9.3172 C   0  0  0  0  0  0  0  0  0  0  0  0
   -5.2216   -2.4546    8.2602 C   0  0  0  0  0  0  0  0  0  0  0  0
   -6.0015   -1.3020    8.2270 C   0  0  0  0  0  0  0  0  0  0  0  0
   -5.6527   -0.2020    8.9878 C   0  0  0  0  0  0  0  0  0  0  0  0
   -4.5242   -0.2477    9.7841 C   0  0  0  0  0  0  0  0  0  0  0  0
  1  2  1  0
  2  3  1  0
  3  4  2  0
  3  5  1  0
  5  6  2  0
  6  7  1  0
  7  8  1  0
  8  9  2  0
  9 10  1  0
 10 11  1  0
 11 12  2  0
 11 13  1  0
  7 14  1  0
 15 14  1  6
 15 16  1  0
 16 17  1  0
 17 18  2  0
 18 19  1  0
 19 20  1  0
 20 21  1  0
 19 22  2  0
 22 23  1  0
 23 24  2  0
 23 25  1  0
 25 26  1  0
 22 27  1  0
 16 28  1  1
 15 29  1  0
 29 30  1  0
 30 31  1  0
 31 32  1  0
 32 33  2  0
 33 34  1  0
 33 35  1  0
 35 36  2  0
 36 37  1  0
 37 38  2  0
  9  5  1  0
 24 17  1  0
 34 30  1  0
 38 32  1  0
M  CHG  1  13  -1
M  END
$$$$
