
     RDKit          3D

 38 41  0  0  0  0  0  0  0  0999 V2000
   -4.3757   -7.3785   15.2408 C   0  0  0  0  0  0  0  0  0  0  0  0
   -3.4059   -6.3457   15.0981 O   0  0  0  0  0  0  0  0  0  0  0  0
   -2.9597   -6.0299   13.8312 C   0  0  0  0  0  0  0  0  0  0  0  0
   -3.3357   -6.6862   12.8421 O   0  0  0  0  0  0  0  0  0  0  0  0
   -2.0282   -4.9135   13.5965 C   0  0  0  0  0  0  0  0  0  0  0  0
   -1.6858   -4.3481   12.3896 C   0  0  0  0  0  0  0  0  0  0  0  0
   -0.8237   -3.3721   12.5876 N   0  0  0  0  0  0  0  0  0  0  0  0
   -0.5841   -3.2751   13.9003 C   0  0  0  0  0  0  0  0  0  0  0  0
   -1.3177   -4.2201   14.5614 C   0  0  0  0  0  0  0  0  0  0  0  0
   -1.3667   -4.4786   16.0235 C   0  0  0  0  0  0  0  0  0  0  0  0
   -2.3505   -3.5989   16.6884 C   0  0  0  0  0  0  0  0  0  0  0  0
   -2.5691   -2.4505   16.2535 O   0  0  0  0  0  0  0  0  0  0  0  0
   -3.0446   -4.0322   17.8024 O   0  0  0  0  0  1  0  0  0  0  0  0
   -0.1638   -2.4657   11.5988 C   0  0  0  0  0  0  0  0  0  0  0  0
   -1.1882   -1.5246   11.1308 C   0  0  1  0  0  0  0  0  0  0  0  0
   -0.6045   -0.4956   10.2166 C   0  0  1  0  0  0  0  0  0  0  0  0
    0.2838    0.5296   10.7715 C   0  0  0  0  0  0  0  0  0  0  0  0
   -0.0488    1.7052   11.3780 C   0  0  0  0  0  0  0  0  0  0  0  0
    0.9012    2.6230   11.8411 C   0  0  0  0  0  0  0  0  0  0  0  0
    0.5240    3.8050   12.4501 O   0  0  0  0  0  0  0  0  0  0  0  0
   -0.7768    4.3161   12.5155 C   0  0  0  0  0  0  0  0  0  0  0  0
    2.2335    2.3635   11.6978 C   0  0  0  0  0  0  0  0  0  0  0  0
    2.6103    1.1855   11.0910 C   0  0  0  0  0  0  0  0  0  0  0  0
    1.6845    0.3128   10.6503 C   0  0  0  0  0  0  0  0  0  0  0  0
    3.9733    0.9248   10.9472 O   0  0  0  0  0  0  0  0  0  0  0  0
    4.5221   -0.3577   11.0505 C   0  0  0  0  0  0  0  0  0  0  0  0
    3.2887    3.3129   12.1747 C   0  0  0  0  0  0  0  0  0  0  0  0
    0.1122   -1.1339    9.1700 O   0  0  0  0  0  0  0  0  0  0  0  0
   -2.5052   -1.9172   10.6546 C   0  0  0  0  0  0  0  0  0  0  0  0
   -3.7289   -1.1864   10.8562 C   0  0  0  0  0  0  0  0  0  0  0  0
   -4.9587   -1.5806   10.1128 C   0  0  0  0  0  0  0  0  0  0  0  0
   -5.9323   -0.5669   10.6598 C   0  0  0  0  0  0  0  0  0  0  0  0
   -5.5357   -0.2724   11.9431 C   0  0  0  0  0  0  0  0  0  0  0  0
   -4.2680   -1.0457   12.2659 C   0  0  0  0  0  0  0  0  0  0  0  0
   -6.2961    0.6255   12.6589 C   0  0  0  0  0  0  0  0  0  0  0  0
   -7.4243    1.2060   12.0865 C   0  0  0  0  0  0  0  0  0  0  0  0
   -7.7927    0.8868   10.7930 C   0  0  0  0  0  0  0  0  0  0  0  0
   -7.0369   -0.0133   10.0661 C   0  0  0  0  0  0  0  0  0  0  0  0
  1  2  1  0
  2  3  1  0
  3  4  2  0
  3  5  1  0
  5  6  2  0
  6  7  1  0
  7  8  1  0
  8  9  2  0
  9 10  1  0
 10 11  1  0
 11 12  2  0
 11 13  1  0
  7 14  1  0
 15 14  1  6
 15 16  1  0
 16 17  1  0
 17 18  2  0
 18 19  1  0
 19 20  1  0
 20 21  1  0
 19 22  2  0
 22 23  1  0
 23 24  2  0
 23 25  1  0
 25 26  1  0
 22 27  1  0
 16 28  1  6
 15 29  1  0
 29 30  1  0
 30 31  1  0
 31 32  1  0
 32 33  2  0
 33 34  1  0
 33 35  1  0
 35 36  2  0
 36 37  1  0
 37 38  2  0
  9  5  1  0
 24 17  1  0
 34 30  1  0
 38 32  1  0
M  CHG  1  13  -1
M  END
$$$$
