
     RDKit          3D

 38 41  0  0  0  0  0  0  0  0999 V2000
   -5.3937   -7.7335   14.4688 C   0  0  0  0  0  0  0  0  0  0  0  0
   -5.1450   -6.4019   14.0298 O   0  0  0  0  0  0  0  0  0  0  0  0
   -4.7925   -6.1965   12.7117 C   0  0  0  0  0  0  0  0  0  0  0  0
   -4.6896   -7.1551   11.9237 O   0  0  0  0  0  0  0  0  0  0  0  0
   -4.5252   -4.8474   12.1851 C   0  0  0  0  0  0  0  0  0  0  0  0
   -4.5312   -3.6603   12.8811 C   0  0  0  0  0  0  0  0  0  0  0  0
   -4.2451   -2.6676   12.0641 N   0  0  0  0  0  0  0  0  0  0  0  0
   -4.0488   -3.1674   10.8387 C   0  0  0  0  0  0  0  0  0  0  0  0
   -4.2149   -4.5237   10.8753 C   0  0  0  0  0  0  0  0  0  0  0  0
   -4.0935   -5.4881    9.7520 C   0  0  0  0  0  0  0  0  0  0  0  0
   -2.6852   -5.8784    9.5333 C   0  0  0  0  0  0  0  0  0  0  0  0
   -1.8204   -5.6424   10.4007 O   0  0  0  0  0  0  0  0  0  0  0  0
   -2.3015   -6.5108    8.3657 O   0  0  0  0  0  1  0  0  0  0  0  0
   -4.1309   -1.2034   12.3436 C   0  0  0  0  0  0  0  0  0  0  0  0
   -2.7031   -0.9107   12.5160 C   0  0  1  0  0  0  0  0  0  0  0  0
   -2.3920    0.5080   12.1616 C   0  0  1  0  0  0  0  0  0  0  0  0
   -0.9947    0.9039   11.9646 C   0  0  0  0  0  0  0  0  0  0  0  0
   -0.0605    1.2233   12.9057 C   0  0  0  0  0  0  0  0  0  0  0  0
    1.2433    1.6199   12.5862 C   0  0  0  0  0  0  0  0  0  0  0  0
    2.1614    1.9366   13.5696 O   0  0  0  0  0  0  0  0  0  0  0  0
    1.8715    2.1742   14.9176 C   0  0  0  0  0  0  0  0  0  0  0  0
    1.6358    1.7019   11.2817 C   0  0  0  0  0  0  0  0  0  0  0  0
    0.7212    1.3863   10.3009 C   0  0  0  0  0  0  0  0  0  0  0  0
   -0.5295    1.0068   10.6241 C   0  0  0  0  0  0  0  0  0  0  0  0
    1.1274    1.4714    8.9689 O   0  0  0  0  0  0  0  0  0  0  0  0
    0.3014    1.1276    7.8937 C   0  0  0  0  0  0  0  0  0  0  0  0
    3.0179    2.1222   10.8875 C   0  0  0  0  0  0  0  0  0  0  0  0
   -3.0900    0.8722   10.9798 O   0  0  0  0  0  0  0  0  0  0  0  0
   -1.9178   -1.3140   13.6718 C   0  0  0  0  0  0  0  0  0  0  0  0
   -1.9987   -2.5825   14.3473 C   0  0  0  0  0  0  0  0  0  0  0  0
   -0.8586   -3.0502   15.1852 C   0  0  0  0  0  0  0  0  0  0  0  0
   -1.4128   -4.3658   15.6717 C   0  0  0  0  0  0  0  0  0  0  0  0
   -2.7790   -4.2291   15.7478 C   0  0  0  0  0  0  0  0  0  0  0  0
   -3.1709   -2.8396   15.2734 C   0  0  0  0  0  0  0  0  0  0  0  0
   -3.5074   -5.3092   16.1947 C   0  0  0  0  0  0  0  0  0  0  0  0
   -2.8657   -6.4915   16.5522 C   0  0  0  0  0  0  0  0  0  0  0  0
   -1.4902   -6.5932   16.4622 C   0  0  0  0  0  0  0  0  0  0  0  0
   -0.7497   -5.5153   16.0153 C   0  0  0  0  0  0  0  0  0  0  0  0
  1  2  1  0
  2  3  1  0
  3  4  2  0
  3  5  1  0
  5  6  2  0
  6  7  1  0
  7  8  1  0
  8  9  2  0
  9 10  1  0
 10 11  1  0
 11 12  2  0
 11 13  1  0
  7 14  1  0
 15 14  1  1
 15 16  1  0
 16 17  1  0
 17 18  2  0
 18 19  1  0
 19 20  1  0
 20 21  1  0
 19 22  2  0
 22 23  1  0
 23 24  2  0
 23 25  1  0
 25 26  1  0
 22 27  1  0
 16 28  1  6
 15 29  1  0
 29 30  1  0
 30 31  1  0
 31 32  1  0
 32 33  2  0
 33 34  1  0
 33 35  1  0
 35 36  2  0
 36 37  1  0
 37 38  2  0
  9  5  1  0
 24 17  1  0
 34 30  1  0
 38 32  1  0
M  CHG  1  13  -1
M  END
$$$$
