
     RDKit          3D

 38 41  0  0  0  0  0  0  0  0999 V2000
    0.1932   -9.4499   14.2978 C   0  0  0  0  0  0  0  0  0  0  0  0
   -0.6809   -8.5323   13.6484 O   0  0  0  0  0  0  0  0  0  0  0  0
   -1.7823   -8.0689   14.3383 C   0  0  0  0  0  0  0  0  0  0  0  0
   -2.0906   -8.5525   15.4435 O   0  0  0  0  0  0  0  0  0  0  0  0
   -2.6326   -6.9925   13.8023 C   0  0  0  0  0  0  0  0  0  0  0  0
   -2.4738   -6.3115   12.6171 C   0  0  0  0  0  0  0  0  0  0  0  0
   -3.4355   -5.4209   12.4870 N   0  0  0  0  0  0  0  0  0  0  0  0
   -4.2316   -5.4937   13.5598 C   0  0  0  0  0  0  0  0  0  0  0  0
   -3.7623   -6.4627   14.4019 C   0  0  0  0  0  0  0  0  0  0  0  0
   -4.3280   -6.8884   15.7079 C   0  0  0  0  0  0  0  0  0  0  0  0
   -3.3906   -6.6033   16.8141 C   0  0  0  0  0  0  0  0  0  0  0  0
   -2.6171   -5.6266   16.7531 O   0  0  0  0  0  0  0  0  0  0  0  0
   -3.3541   -7.4123   17.9342 O   0  0  0  0  0  1  0  0  0  0  0  0
   -3.6935   -4.4487   11.3810 C   0  0  0  0  0  0  0  0  0  0  0  0
   -2.6073   -3.4623   11.4163 C   0  0  1  0  0  0  0  0  0  0  0  0
   -2.5242   -2.6986   10.1338 C   0  0  1  0  0  0  0  0  0  0  0  0
   -2.4115   -1.2380   10.1795 C   0  0  0  0  0  0  0  0  0  0  0  0
   -1.3204   -0.4609    9.9227 C   0  0  0  0  0  0  0  0  0  0  0  0
   -1.3316    0.9345   10.0327 C   0  0  0  0  0  0  0  0  0  0  0  0
   -0.2040    1.6875    9.7646 O   0  0  0  0  0  0  0  0  0  0  0  0
    0.9416    1.2411    9.0969 C   0  0  0  0  0  0  0  0  0  0  0  0
   -2.4705    1.5843   10.4115 C   0  0  0  0  0  0  0  0  0  0  0  0
   -3.5949    0.8345   10.6788 C   0  0  0  0  0  0  0  0  0  0  0  0
   -3.5683   -0.5072   10.5689 C   0  0  0  0  0  0  0  0  0  0  0  0
   -4.7566    1.5034   11.0652 O   0  0  0  0  0  0  0  0  0  0  0  0
   -5.7451    0.9204   11.8651 C   0  0  0  0  0  0  0  0  0  0  0  0
   -2.5340    3.0743   10.5454 C   0  0  0  0  0  0  0  0  0  0  0  0
   -1.4268   -3.1689    9.3648 O   0  0  0  0  0  0  0  0  0  0  0  0
   -2.3434   -2.5740   12.5373 C   0  0  0  0  0  0  0  0  0  0  0  0
   -1.8110   -2.9634   13.8168 C   0  0  0  0  0  0  0  0  0  0  0  0
   -0.3652   -3.2998   13.9468 C   0  0  0  0  0  0  0  0  0  0  0  0
   -0.3001   -3.6127   15.4207 C   0  0  0  0  0  0  0  0  0  0  0  0
   -1.2543   -2.8427   16.0431 C   0  0  0  0  0  0  0  0  0  0  0  0
   -2.0057   -2.0343   14.9985 C   0  0  0  0  0  0  0  0  0  0  0  0
   -1.3670   -2.9442   17.4120 C   0  0  0  0  0  0  0  0  0  0  0  0
   -0.5353   -3.8028   18.1251 C   0  0  0  0  0  0  0  0  0  0  0  0
    0.4126   -4.5626   17.4657 C   0  0  0  0  0  0  0  0  0  0  0  0
    0.5344   -4.4681   16.0923 C   0  0  0  0  0  0  0  0  0  0  0  0
  1  2  1  0
  2  3  1  0
  3  4  2  0
  3  5  1  0
  5  6  2  0
  6  7  1  0
  7  8  1  0
  8  9  2  0
  9 10  1  0
 10 11  1  0
 11 12  2  0
 11 13  1  0
  7 14  1  0
 15 14  1  1
 15 16  1  0
 16 17  1  0
 17 18  2  0
 18 19  1  0
 19 20  1  0
 20 21  1  0
 19 22  2  0
 22 23  1  0
 23 24  2  0
 23 25  1  0
 25 26  1  0
 22 27  1  0
 16 28  1  1
 15 29  1  0
 29 30  1  0
 30 31  1  0
 31 32  1  0
 32 33  2  0
 33 34  1  0
 33 35  1  0
 35 36  2  0
 36 37  1  0
 37 38  2  0
  9  5  1  0
 24 17  1  0
 34 30  1  0
 38 32  1  0
M  CHG  1  13  -1
M  END
$$$$
