
     RDKit          3D

 38 41  0  0  0  0  0  0  0  0999 V2000
    0.2455   -9.4143   14.9330 C   0  0  0  0  0  0  0  0  0  0  0  0
   -0.4133   -8.4596   14.1070 O   0  0  0  0  0  0  0  0  0  0  0  0
   -1.6355   -7.9659   14.5147 C   0  0  0  0  0  0  0  0  0  0  0  0
   -2.1455   -8.3366   15.5885 O   0  0  0  0  0  0  0  0  0  0  0  0
   -2.3824   -6.9884   13.7051 C   0  0  0  0  0  0  0  0  0  0  0  0
   -2.0749   -6.5381   12.4417 C   0  0  0  0  0  0  0  0  0  0  0  0
   -2.9819   -5.6670   12.0500 N   0  0  0  0  0  0  0  0  0  0  0  0
   -3.8872   -5.5270   13.0252 C   0  0  0  0  0  0  0  0  0  0  0  0
   -3.5464   -6.3356   14.0733 C   0  0  0  0  0  0  0  0  0  0  0  0
   -4.2609   -6.5046   15.3647 C   0  0  0  0  0  0  0  0  0  0  0  0
   -5.0287   -7.7669   15.3888 C   0  0  0  0  0  0  0  0  0  0  0  0
   -5.1334   -8.4644   14.3600 O   0  0  0  0  0  0  0  0  0  0  0  0
   -5.6436   -8.1966   16.5497 O   0  0  0  0  0  1  0  0  0  0  0  0
   -3.0852   -4.9077   10.7664 C   0  0  0  0  0  0  0  0  0  0  0  0
   -2.5645   -3.5599   11.0235 C   0  0  1  0  0  0  0  0  0  0  0  0
   -2.3070   -2.8237    9.7479 C   0  0  1  0  0  0  0  0  0  0  0  0
   -2.1975   -1.3625    9.7774 C   0  0  0  0  0  0  0  0  0  0  0  0
   -3.1973   -0.4352    9.8068 C   0  0  0  0  0  0  0  0  0  0  0  0
   -2.9619    0.9446    9.8005 C   0  0  0  0  0  0  0  0  0  0  0  0
   -4.0030    1.8532    9.8301 O   0  0  0  0  0  0  0  0  0  0  0  0
   -5.2912    1.6101   10.3190 C   0  0  0  0  0  0  0  0  0  0  0  0
   -1.6842    1.4230    9.7648 C   0  0  0  0  0  0  0  0  0  0  0  0
   -0.6460    0.5179    9.7354 C   0  0  0  0  0  0  0  0  0  0  0  0
   -0.8885   -0.8065    9.7414 C   0  0  0  0  0  0  0  0  0  0  0  0
    0.6582    1.0120    9.6993 O   0  0  0  0  0  0  0  0  0  0  0  0
    1.7831    0.1926    9.5580 C   0  0  0  0  0  0  0  0  0  0  0  0
   -1.3794    2.8890    9.7552 C   0  0  0  0  0  0  0  0  0  0  0  0
   -1.1173   -3.3102    9.1442 O   0  0  0  0  0  0  0  0  0  0  0  0
   -3.1067   -2.6479   12.0183 C   0  0  0  0  0  0  0  0  0  0  0  0
   -2.3753   -2.0513   13.1051 C   0  0  0  0  0  0  0  0  0  0  0  0
   -3.0586   -1.0962   14.0225 C   0  0  0  0  0  0  0  0  0  0  0  0
   -1.9233   -0.7779   14.9630 C   0  0  0  0  0  0  0  0  0  0  0  0
   -1.1199   -1.8922   15.0234 C   0  0  0  0  0  0  0  0  0  0  0  0
   -1.6729   -2.9600   14.0944 C   0  0  0  0  0  0  0  0  0  0  0  0
   -0.0175   -1.8436   15.8476 C   0  0  0  0  0  0  0  0  0  0  0  0
    0.2590   -0.6968   16.5865 C   0  0  0  0  0  0  0  0  0  0  0  0
   -0.5708    0.4053   16.5001 C   0  0  0  0  0  0  0  0  0  0  0  0
   -1.6799    0.3669   15.6765 C   0  0  0  0  0  0  0  0  0  0  0  0
  1  2  1  0
  2  3  1  0
  3  4  2  0
  3  5  1  0
  5  6  2  0
  6  7  1  0
  7  8  1  0
  8  9  2  0
  9 10  1  0
 10 11  1  0
 11 12  2  0
 11 13  1  0
  7 14  1  0
 15 14  1  6
 15 16  1  0
 16 17  1  0
 17 18  2  0
 18 19  1  0
 19 20  1  0
 20 21  1  0
 19 22  2  0
 22 23  1  0
 23 24  2  0
 23 25  1  0
 25 26  1  0
 22 27  1  0
 16 28  1  1
 15 29  1  0
 29 30  1  0
 30 31  1  0
 31 32  1  0
 32 33  2  0
 33 34  1  0
 33 35  1  0
 35 36  2  0
 36 37  1  0
 37 38  2  0
  9  5  1  0
 24 17  1  0
 34 30  1  0
 38 32  1  0
M  CHG  1  13  -1
M  END
$$$$
