
     RDKit          3D

 38 41  0  0  0  0  0  0  0  0999 V2000
   -0.2562   -4.5255   17.5488 C   0  0  0  0  0  0  0  0  0  0  0  0
   -1.0626   -4.1106   16.4509 O   0  0  0  0  0  0  0  0  0  0  0  0
   -2.0972   -4.9286   16.0457 C   0  0  0  0  0  0  0  0  0  0  0  0
   -2.2781   -6.0383   16.5808 O   0  0  0  0  0  0  0  0  0  0  0  0
   -3.0233   -4.5283   14.9729 C   0  0  0  0  0  0  0  0  0  0  0  0
   -2.9251   -3.4314   14.1477 C   0  0  0  0  0  0  0  0  0  0  0  0
   -3.9449   -3.4127   13.3143 N   0  0  0  0  0  0  0  0  0  0  0  0
   -4.7206   -4.4733   13.5663 C   0  0  0  0  0  0  0  0  0  0  0  0
   -4.1776   -5.1922   14.5942 C   0  0  0  0  0  0  0  0  0  0  0  0
   -4.6966   -6.4420   15.2071 C   0  0  0  0  0  0  0  0  0  0  0  0
   -4.1770   -7.6354   14.5076 C   0  0  0  0  0  0  0  0  0  0  0  0
   -3.5535   -7.5187   13.4335 O   0  0  0  0  0  0  0  0  0  0  0  0
   -4.3721   -8.9001   15.0299 O   0  0  0  0  0  1  0  0  0  0  0  0
   -4.2794   -2.4324   12.2364 C   0  0  0  0  0  0  0  0  0  0  0  0
   -3.1489   -2.4231   11.3005 C   0  0  1  0  0  0  0  0  0  0  0  0
   -3.6059   -2.1794    9.8979 C   0  0  1  0  0  0  0  0  0  0  0  0
   -2.7824   -1.3502    9.0135 C   0  0  0  0  0  0  0  0  0  0  0  0
   -2.3689   -0.0633    9.1958 C   0  0  0  0  0  0  0  0  0  0  0  0
   -1.6051    0.6359    8.2540 C   0  0  0  0  0  0  0  0  0  0  0  0
   -1.2061    1.9406    8.4753 O   0  0  0  0  0  0  0  0  0  0  0  0
   -1.8632    2.8739    9.2845 C   0  0  0  0  0  0  0  0  0  0  0  0
   -1.2363    0.0342    7.0858 C   0  0  0  0  0  0  0  0  0  0  0  0
   -1.6335   -1.2663    6.8644 C   0  0  0  0  0  0  0  0  0  0  0  0
   -2.3684   -1.9256    7.7800 C   0  0  0  0  0  0  0  0  0  0  0  0
   -1.2537   -1.8770    5.6690 O   0  0  0  0  0  0  0  0  0  0  0  0
   -1.7467   -3.1185    5.2537 C   0  0  0  0  0  0  0  0  0  0  0  0
   -0.4213    0.7389    6.0460 C   0  0  0  0  0  0  0  0  0  0  0  0
   -3.7981   -3.4194    9.2330 O   0  0  0  0  0  0  0  0  0  0  0  0
   -1.8941   -1.7274   11.5382 C   0  0  0  0  0  0  0  0  0  0  0  0
   -1.4723   -1.1487   12.7869 C   0  0  0  0  0  0  0  0  0  0  0  0
   -0.0947   -0.5963   12.9202 C   0  0  0  0  0  0  0  0  0  0  0  0
   -0.1437   -0.1104   14.3471 C   0  0  0  0  0  0  0  0  0  0  0  0
   -1.4444    0.2498   14.6103 C   0  0  0  0  0  0  0  0  0  0  0  0
   -2.2992   -0.0278   13.3850 C   0  0  0  0  0  0  0  0  0  0  0  0
   -1.7303    0.7502   15.8612 C   0  0  0  0  0  0  0  0  0  0  0  0
   -0.7243    0.8793   16.8145 C   0  0  0  0  0  0  0  0  0  0  0  0
    0.5724    0.5062   16.5149 C   0  0  0  0  0  0  0  0  0  0  0  0
    0.8702    0.0033   15.2625 C   0  0  0  0  0  0  0  0  0  0  0  0
  1  2  1  0
  2  3  1  0
  3  4  2  0
  3  5  1  0
  5  6  2  0
  6  7  1  0
  7  8  1  0
  8  9  2  0
  9 10  1  0
 10 11  1  0
 11 12  2  0
 11 13  1  0
  7 14  1  0
 15 14  1  1
 15 16  1  0
 16 17  1  0
 17 18  2  0
 18 19  1  0
 19 20  1  0
 20 21  1  0
 19 22  2  0
 22 23  1  0
 23 24  2  0
 23 25  1  0
 25 26  1  0
 22 27  1  0
 16 28  1  6
 15 29  1  0
 29 30  1  0
 30 31  1  0
 31 32  1  0
 32 33  2  0
 33 34  1  0
 33 35  1  0
 35 36  2  0
 36 37  1  0
 37 38  2  0
  9  5  1  0
 24 17  1  0
 34 30  1  0
 38 32  1  0
M  CHG  1  13  -1
M  END
$$$$
