
     RDKit          3D

 38 41  0  0  0  0  0  0  0  0999 V2000
   -2.8350  -10.0653   12.7468 C   0  0  0  0  0  0  0  0  0  0  0  0
   -2.9375   -8.6468   12.8188 O   0  0  0  0  0  0  0  0  0  0  0  0
   -3.5723   -8.0856   13.9078 C   0  0  0  0  0  0  0  0  0  0  0  0
   -4.0221   -8.8022   14.8214 O   0  0  0  0  0  0  0  0  0  0  0  0
   -3.7434   -6.6284   14.0354 C   0  0  0  0  0  0  0  0  0  0  0  0
   -3.2600   -5.6516   13.1953 C   0  0  0  0  0  0  0  0  0  0  0  0
   -3.6209   -4.4663   13.6419 N   0  0  0  0  0  0  0  0  0  0  0  0
   -4.3342   -4.6320   14.7616 C   0  0  0  0  0  0  0  0  0  0  0  0
   -4.4317   -5.9670   15.0381 C   0  0  0  0  0  0  0  0  0  0  0  0
   -5.1301   -6.6136   16.1787 C   0  0  0  0  0  0  0  0  0  0  0  0
   -4.1674   -7.0884   17.1943 C   0  0  0  0  0  0  0  0  0  0  0  0
   -3.1840   -6.3893   17.5107 O   0  0  0  0  0  0  0  0  0  0  0  0
   -4.3390   -8.3135   17.8108 O   0  0  0  0  0  1  0  0  0  0  0  0
   -3.3422   -3.1089   13.0808 C   0  0  0  0  0  0  0  0  0  0  0  0
   -2.0058   -3.1616   12.4767 C   0  0  1  0  0  0  0  0  0  0  0  0
   -2.0339   -2.7057   11.0532 C   0  0  1  0  0  0  0  0  0  0  0  0
   -2.1160   -1.2710   10.7653 C   0  0  0  0  0  0  0  0  0  0  0  0
   -1.1166   -0.3428   10.7764 C   0  0  0  0  0  0  0  0  0  0  0  0
   -1.3301    1.0151   10.5123 C   0  0  0  0  0  0  0  0  0  0  0  0
   -0.2905    1.9256   10.5343 O   0  0  0  0  0  0  0  0  0  0  0  0
    1.0036    1.7058   10.0499 C   0  0  0  0  0  0  0  0  0  0  0  0
   -2.5845    1.4697   10.2249 C   0  0  0  0  0  0  0  0  0  0  0  0
   -3.6213    0.5628   10.2027 C   0  0  0  0  0  0  0  0  0  0  0  0
   -3.4000   -0.7403   10.4593 C   0  0  0  0  0  0  0  0  0  0  0  0
   -4.9015    1.0324    9.9080 O   0  0  0  0  0  0  0  0  0  0  0  0
   -5.9774    0.1880    9.6142 C   0  0  0  0  0  0  0  0  0  0  0  0
   -2.8657    2.9119    9.9367 C   0  0  0  0  0  0  0  0  0  0  0  0
   -0.8892   -3.1944   10.3695 O   0  0  0  0  0  0  0  0  0  0  0  0
   -0.7946   -2.6828   13.1241 C   0  0  0  0  0  0  0  0  0  0  0  0
   -0.3632   -3.0107   14.4577 C   0  0  0  0  0  0  0  0  0  0  0  0
    0.9079   -2.4407   14.9868 C   0  0  0  0  0  0  0  0  0  0  0  0
    0.9093   -3.0418   16.3701 C   0  0  0  0  0  0  0  0  0  0  0  0
   -0.4037   -3.1974   16.7479 C   0  0  0  0  0  0  0  0  0  0  0  0
   -1.3086   -2.7473   15.6130 C   0  0  0  0  0  0  0  0  0  0  0  0
   -0.6535   -3.7157   17.9992 C   0  0  0  0  0  0  0  0  0  0  0  0
    0.3997   -4.0652   18.8394 C   0  0  0  0  0  0  0  0  0  0  0  0
    1.7076   -3.8956   18.4258 C   0  0  0  0  0  0  0  0  0  0  0  0
    1.9694   -3.3760   17.1722 C   0  0  0  0  0  0  0  0  0  0  0  0
  1  2  1  0
  2  3  1  0
  3  4  2  0
  3  5  1  0
  5  6  2  0
  6  7  1  0
  7  8  1  0
  8  9  2  0
  9 10  1  0
 10 11  1  0
 11 12  2  0
 11 13  1  0
  7 14  1  0
 15 14  1  1
 15 16  1  0
 16 17  1  0
 17 18  2  0
 18 19  1  0
 19 20  1  0
 20 21  1  0
 19 22  2  0
 22 23  1  0
 23 24  2  0
 23 25  1  0
 25 26  1  0
 22 27  1  0
 16 28  1  6
 15 29  1  0
 29 30  1  0
 30 31  1  0
 31 32  1  0
 32 33  2  0
 33 34  1  0
 33 35  1  0
 35 36  2  0
 36 37  1  0
 37 38  2  0
  9  5  1  0
 24 17  1  0
 34 30  1  0
 38 32  1  0
M  CHG  1  13  -1
M  END
$$$$
