
     RDKit          3D

 38 41  0  0  0  0  0  0  0  0999 V2000
   -3.8962  -10.7227   13.6137 C   0  0  0  0  0  0  0  0  0  0  0  0
   -3.8963   -9.4023   14.1469 O   0  0  0  0  0  0  0  0  0  0  0  0
   -3.0288   -8.4735   13.6097 C   0  0  0  0  0  0  0  0  0  0  0  0
   -2.1835   -8.8095   12.7593 O   0  0  0  0  0  0  0  0  0  0  0  0
   -3.0650   -7.0582   14.0150 C   0  0  0  0  0  0  0  0  0  0  0  0
   -2.1763   -6.0654   13.6708 C   0  0  0  0  0  0  0  0  0  0  0  0
   -2.5440   -4.9303   14.2286 N   0  0  0  0  0  0  0  0  0  0  0  0
   -3.6584   -5.1452   14.9373 C   0  0  0  0  0  0  0  0  0  0  0  0
   -4.0132   -6.4606   14.8276 C   0  0  0  0  0  0  0  0  0  0  0  0
   -5.1785   -7.1454   15.4442 C   0  0  0  0  0  0  0  0  0  0  0  0
   -4.7955   -7.8253   16.6991 C   0  0  0  0  0  0  0  0  0  0  0  0
   -3.7617   -7.4900   17.3112 O   0  0  0  0  0  0  0  0  0  0  0  0
   -5.5746   -8.8433   17.2160 O   0  0  0  0  0  1  0  0  0  0  0  0
   -1.9084   -3.5794   14.1533 C   0  0  0  0  0  0  0  0  0  0  0  0
   -1.6946   -3.2856   12.7314 C   0  0  1  0  0  0  0  0  0  0  0  0
   -0.9953   -1.9774   12.5453 C   0  0  1  0  0  0  0  0  0  0  0  0
   -1.5572   -0.7739   13.1649 C   0  0  0  0  0  0  0  0  0  0  0  0
   -2.7833   -0.6060   13.7384 C   0  0  0  0  0  0  0  0  0  0  0  0
   -3.2183    0.6128   14.2719 C   0  0  0  0  0  0  0  0  0  0  0  0
   -4.4696    0.7431   14.8443 O   0  0  0  0  0  0  0  0  0  0  0  0
   -5.6513    0.1582   14.3765 C   0  0  0  0  0  0  0  0  0  0  0  0
   -2.4044    1.7077   14.2357 C   0  0  0  0  0  0  0  0  0  0  0  0
   -1.1570    1.5787   13.6654 C   0  0  0  0  0  0  0  0  0  0  0  0
   -0.7530    0.3996   13.1560 C   0  0  0  0  0  0  0  0  0  0  0  0
   -0.3286    2.7007   13.6311 O   0  0  0  0  0  0  0  0  0  0  0  0
    1.0385    2.6517   13.9231 C   0  0  0  0  0  0  0  0  0  0  0  0
   -2.8229    3.0339   14.7911 C   0  0  0  0  0  0  0  0  0  0  0  0
    0.3466   -2.0812   12.9983 O   0  0  0  0  0  0  0  0  0  0  0  0
   -1.2028   -4.2502   11.7604 C   0  0  0  0  0  0  0  0  0  0  0  0
   -1.3880   -4.1831   10.3344 C   0  0  0  0  0  0  0  0  0  0  0  0
   -0.7710   -5.2178    9.4573 C   0  0  0  0  0  0  0  0  0  0  0  0
   -1.2500   -4.7390    8.1098 C   0  0  0  0  0  0  0  0  0  0  0  0
   -2.4634   -4.1220    8.3044 C   0  0  0  0  0  0  0  0  0  0  0  0
   -2.8003   -4.1350    9.7861 C   0  0  0  0  0  0  0  0  0  0  0  0
   -3.1110   -3.6180    7.1984 C   0  0  0  0  0  0  0  0  0  0  0  0
   -2.5413   -3.7374    5.9339 C   0  0  0  0  0  0  0  0  0  0  0  0
   -1.3192   -4.3635    5.7760 C   0  0  0  0  0  0  0  0  0  0  0  0
   -0.6611   -4.8731    6.8792 C   0  0  0  0  0  0  0  0  0  0  0  0
  1  2  1  0
  2  3  1  0
  3  4  2  0
  3  5  1  0
  5  6  2  0
  6  7  1  0
  7  8  1  0
  8  9  2  0
  9 10  1  0
 10 11  1  0
 11 12  2  0
 11 13  1  0
  7 14  1  0
 15 14  1  1
 15 16  1  0
 16 17  1  0
 17 18  2  0
 18 19  1  0
 19 20  1  0
 20 21  1  0
 19 22  2  0
 22 23  1  0
 23 24  2  0
 23 25  1  0
 25 26  1  0
 22 27  1  0
 16 28  1  1
 15 29  1  0
 29 30  1  0
 30 31  1  0
 31 32  1  0
 32 33  2  0
 33 34  1  0
 33 35  1  0
 35 36  2  0
 36 37  1  0
 37 38  2  0
  9  5  1  0
 24 17  1  0
 34 30  1  0
 38 32  1  0
M  CHG  1  13  -1
M  END
$$$$
