
     RDKit          3D

 38 41  0  0  0  0  0  0  0  0999 V2000
    0.1583   -8.9190   14.4223 C   0  0  0  0  0  0  0  0  0  0  0  0
   -0.4335   -7.7879   13.7913 O   0  0  0  0  0  0  0  0  0  0  0  0
   -1.7968   -7.6076   13.9039 C   0  0  0  0  0  0  0  0  0  0  0  0
   -2.4472   -8.2038   14.7825 O   0  0  0  0  0  0  0  0  0  0  0  0
   -2.5344   -6.7107   12.9981 C   0  0  0  0  0  0  0  0  0  0  0  0
   -2.0667   -6.1067   11.8535 C   0  0  0  0  0  0  0  0  0  0  0  0
   -3.0233   -5.3782   11.3158 N   0  0  0  0  0  0  0  0  0  0  0  0
   -4.1183   -5.4836   12.0773 C   0  0  0  0  0  0  0  0  0  0  0  0
   -3.8514   -6.3065   13.1356 C   0  0  0  0  0  0  0  0  0  0  0  0
   -4.7690   -6.7085   14.2325 C   0  0  0  0  0  0  0  0  0  0  0  0
   -4.3096   -6.1796   15.5336 C   0  0  0  0  0  0  0  0  0  0  0  0
   -3.0971   -5.9731   15.7410 O   0  0  0  0  0  0  0  0  0  0  0  0
   -5.2137   -5.9048   16.5423 O   0  0  0  0  0  1  0  0  0  0  0  0
   -3.0046   -4.5416   10.0770 C   0  0  0  0  0  0  0  0  0  0  0  0
   -2.4099   -3.2503   10.4416 C   0  0  1  0  0  0  0  0  0  0  0  0
   -2.3962   -2.3102    9.2792 C   0  0  1  0  0  0  0  0  0  0  0  0
   -2.4122   -0.8662    9.5296 C   0  0  0  0  0  0  0  0  0  0  0  0
   -3.4673   -0.0751    9.8777 C   0  0  0  0  0  0  0  0  0  0  0  0
   -3.3594    1.3087   10.0590 C   0  0  0  0  0  0  0  0  0  0  0  0
   -4.4532    2.0767   10.4111 O   0  0  0  0  0  0  0  0  0  0  0  0
   -5.6083    1.6153   11.0518 C   0  0  0  0  0  0  0  0  0  0  0  0
   -2.1570    1.9317    9.8892 C   0  0  0  0  0  0  0  0  0  0  0  0
   -1.0662    1.1669    9.5385 C   0  0  0  0  0  0  0  0  0  0  0  0
   -1.1861   -0.1633    9.3672 C   0  0  0  0  0  0  0  0  0  0  0  0
    0.1607    1.8084    9.3664 O   0  0  0  0  0  0  0  0  0  0  0  0
    1.3487    1.1251    9.0862 C   0  0  0  0  0  0  0  0  0  0  0  0
   -1.9893    3.4087   10.0698 C   0  0  0  0  0  0  0  0  0  0  0  0
   -1.2631   -2.5707    8.4639 O   0  0  0  0  0  0  0  0  0  0  0  0
   -2.7185   -2.5215   11.6617 C   0  0  0  0  0  0  0  0  0  0  0  0
   -2.4931   -2.9883   13.0047 C   0  0  0  0  0  0  0  0  0  0  0  0
   -1.1099   -3.3116   13.4547 C   0  0  0  0  0  0  0  0  0  0  0  0
   -1.3866   -3.7220   14.8794 C   0  0  0  0  0  0  0  0  0  0  0  0
   -2.4839   -3.0096   15.3026 C   0  0  0  0  0  0  0  0  0  0  0  0
   -2.9903   -2.1438   14.1611 C   0  0  0  0  0  0  0  0  0  0  0  0
   -2.9148   -3.2046   16.5961 C   0  0  0  0  0  0  0  0  0  0  0  0
   -2.2503   -4.0970   17.4325 C   0  0  0  0  0  0  0  0  0  0  0  0
   -1.1506   -4.7969   16.9725 C   0  0  0  0  0  0  0  0  0  0  0  0
   -0.7097   -4.6084   15.6764 C   0  0  0  0  0  0  0  0  0  0  0  0
  1  2  1  0
  2  3  1  0
  3  4  2  0
  3  5  1  0
  5  6  2  0
  6  7  1  0
  7  8  1  0
  8  9  2  0
  9 10  1  0
 10 11  1  0
 11 12  2  0
 11 13  1  0
  7 14  1  0
 15 14  1  6
 15 16  1  0
 16 17  1  0
 17 18  2  0
 18 19  1  0
 19 20  1  0
 20 21  1  0
 19 22  2  0
 22 23  1  0
 23 24  2  0
 23 25  1  0
 25 26  1  0
 22 27  1  0
 16 28  1  1
 15 29  1  0
 29 30  1  0
 30 31  1  0
 31 32  1  0
 32 33  2  0
 33 34  1  0
 33 35  1  0
 35 36  2  0
 36 37  1  0
 37 38  2  0
  9  5  1  0
 24 17  1  0
 34 30  1  0
 38 32  1  0
M  CHG  1  13  -1
M  END
$$$$
