
     RDKit          3D

 38 41  0  0  0  0  0  0  0  0999 V2000
    0.2662   -9.4225   13.4517 C   0  0  0  0  0  0  0  0  0  0  0  0
   -0.4273   -8.2257   13.1131 O   0  0  0  0  0  0  0  0  0  0  0  0
   -1.4064   -7.7656   13.9695 C   0  0  0  0  0  0  0  0  0  0  0  0
   -1.6070   -8.3228   15.0648 O   0  0  0  0  0  0  0  0  0  0  0  0
   -2.2484   -6.6065   13.6281 C   0  0  0  0  0  0  0  0  0  0  0  0
   -2.2357   -5.8767   12.4616 C   0  0  0  0  0  0  0  0  0  0  0  0
   -3.1345   -4.9164   12.5313 N   0  0  0  0  0  0  0  0  0  0  0  0
   -3.7458   -4.9904   13.7191 C   0  0  0  0  0  0  0  0  0  0  0  0
   -3.2196   -6.0324   14.4304 C   0  0  0  0  0  0  0  0  0  0  0  0
   -3.5930   -6.4860   15.7948 C   0  0  0  0  0  0  0  0  0  0  0  0
   -4.4729   -7.6720   15.7409 C   0  0  0  0  0  0  0  0  0  0  0  0
   -4.3900   -8.4798   14.7941 O   0  0  0  0  0  0  0  0  0  0  0  0
   -5.4020   -7.9070   16.7369 O   0  0  0  0  0  1  0  0  0  0  0  0
   -3.4960   -3.8720   11.5247 C   0  0  0  0  0  0  0  0  0  0  0  0
   -2.2560   -3.1714   11.1706 C   0  0  1  0  0  0  0  0  0  0  0  0
   -2.4272   -2.3564    9.9290 C   0  0  1  0  0  0  0  0  0  0  0  0
   -1.6621   -1.1153    9.7794 C   0  0  0  0  0  0  0  0  0  0  0  0
   -0.3391   -0.8966   10.0286 C   0  0  0  0  0  0  0  0  0  0  0  0
    0.2722    0.3533    9.8757 C   0  0  0  0  0  0  0  0  0  0  0  0
    1.6167    0.5349   10.1395 O   0  0  0  0  0  0  0  0  0  0  0  0
    2.4985   -0.4405   10.6175 C   0  0  0  0  0  0  0  0  0  0  0  0
   -0.4579    1.4282    9.4581 C   0  0  0  0  0  0  0  0  0  0  0  0
   -1.7981    1.2480    9.1948 C   0  0  0  0  0  0  0  0  0  0  0  0
   -2.3718    0.0394    9.3471 C   0  0  0  0  0  0  0  0  0  0  0  0
   -2.5399    2.3497    8.7680 O   0  0  0  0  0  0  0  0  0  0  0  0
   -3.6051    2.2522    7.8666 C   0  0  0  0  0  0  0  0  0  0  0  0
    0.1482    2.7859    9.2803 C   0  0  0  0  0  0  0  0  0  0  0  0
   -2.1409   -3.1525    8.7885 O   0  0  0  0  0  0  0  0  0  0  0  0
   -1.4207   -2.4535   12.1204 C   0  0  0  0  0  0  0  0  0  0  0  0
   -1.8688   -1.4491   13.0492 C   0  0  0  0  0  0  0  0  0  0  0  0
   -2.9554   -1.7673   14.0180 C   0  0  0  0  0  0  0  0  0  0  0  0
   -3.0464   -0.4526   14.7514 C   0  0  0  0  0  0  0  0  0  0  0  0
   -1.7920    0.1104   14.7353 C   0  0  0  0  0  0  0  0  0  0  0  0
   -0.8483   -0.7900   13.9558 C   0  0  0  0  0  0  0  0  0  0  0  0
   -1.6243    1.3204   15.3716 C   0  0  0  0  0  0  0  0  0  0  0  0
   -2.6996    1.9382   16.0037 C   0  0  0  0  0  0  0  0  0  0  0  0
   -3.9471    1.3430   15.9990 C   0  0  0  0  0  0  0  0  0  0  0  0
   -4.1262    0.1288   15.3638 C   0  0  0  0  0  0  0  0  0  0  0  0
  1  2  1  0
  2  3  1  0
  3  4  2  0
  3  5  1  0
  5  6  2  0
  6  7  1  0
  7  8  1  0
  8  9  2  0
  9 10  1  0
 10 11  1  0
 11 12  2  0
 11 13  1  0
  7 14  1  0
 15 14  1  1
 15 16  1  0
 16 17  1  0
 17 18  2  0
 18 19  1  0
 19 20  1  0
 20 21  1  0
 19 22  2  0
 22 23  1  0
 23 24  2  0
 23 25  1  0
 25 26  1  0
 22 27  1  0
 16 28  1  6
 15 29  1  0
 29 30  1  0
 30 31  1  0
 31 32  1  0
 32 33  2  0
 33 34  1  0
 33 35  1  0
 35 36  2  0
 36 37  1  0
 37 38  2  0
  9  5  1  0
 24 17  1  0
 34 30  1  0
 38 32  1  0
M  CHG  1  13  -1
M  END
$$$$
