
     RDKit          3D

 38 41  0  0  0  0  0  0  0  0999 V2000
   -7.3747   -5.5907   16.3457 C   0  0  0  0  0  0  0  0  0  0  0  0
   -6.1030   -5.2170   15.8254 O   0  0  0  0  0  0  0  0  0  0  0  0
   -5.3233   -6.1864   15.2287 C   0  0  0  0  0  0  0  0  0  0  0  0
   -5.7317   -7.3583   15.1275 O   0  0  0  0  0  0  0  0  0  0  0  0
   -3.9870   -5.8797   14.6910 C   0  0  0  0  0  0  0  0  0  0  0  0
   -3.3610   -4.6548   14.6515 C   0  0  0  0  0  0  0  0  0  0  0  0
   -2.1740   -4.7829   14.0953 N   0  0  0  0  0  0  0  0  0  0  0  0
   -1.9954   -6.0667   13.7632 C   0  0  0  0  0  0  0  0  0  0  0  0
   -3.1051   -6.7809   14.1195 C   0  0  0  0  0  0  0  0  0  0  0  0
   -3.3488   -8.2357   13.9434 C   0  0  0  0  0  0  0  0  0  0  0  0
   -3.9190   -8.5240   12.6110 C   0  0  0  0  0  0  0  0  0  0  0  0
   -3.4889   -7.9376   11.5975 O   0  0  0  0  0  0  0  0  0  0  0  0
   -4.9373   -9.4470   12.4641 O   0  0  0  0  0  1  0  0  0  0  0  0
   -1.1267   -3.7494   13.8309 C   0  0  0  0  0  0  0  0  0  0  0  0
   -1.5258   -3.0381   12.6109 C   0  0  1  0  0  0  0  0  0  0  0  0
   -1.1057   -1.6039   12.6552 C   0  0  1  0  0  0  0  0  0  0  0  0
   -1.2698   -0.8510   13.9019 C   0  0  0  0  0  0  0  0  0  0  0  0
   -0.3056   -0.3334   14.7160 C   0  0  0  0  0  0  0  0  0  0  0  0
   -0.5921    0.3444   15.9067 C   0  0  0  0  0  0  0  0  0  0  0  0
    0.4140    0.8539   16.7057 O   0  0  0  0  0  0  0  0  0  0  0  0
    1.4333    0.1136   17.3144 C   0  0  0  0  0  0  0  0  0  0  0  0
   -1.8862    0.5161   16.3047 C   0  0  0  0  0  0  0  0  0  0  0  0
   -2.8897    0.0086   15.5089 C   0  0  0  0  0  0  0  0  0  0  0  0
   -2.5981   -0.6414   14.3664 C   0  0  0  0  0  0  0  0  0  0  0  0
   -4.2108    0.1870   15.9199 O   0  0  0  0  0  0  0  0  0  0  0  0
   -5.3114   -0.1893   15.1429 C   0  0  0  0  0  0  0  0  0  0  0  0
   -2.2453    1.2321   17.5700 C   0  0  0  0  0  0  0  0  0  0  0  0
    0.2614   -1.4922   12.2877 O   0  0  0  0  0  0  0  0  0  0  0  0
   -1.3544   -3.5608   11.2645 C   0  0  0  0  0  0  0  0  0  0  0  0
   -1.6057   -2.8441   10.0416 C   0  0  0  0  0  0  0  0  0  0  0  0
   -2.7995   -1.9590    9.9330 C   0  0  0  0  0  0  0  0  0  0  0  0
   -2.6166   -1.4428    8.5278 C   0  0  0  0  0  0  0  0  0  0  0  0
   -1.2647   -1.4097    8.2788 C   0  0  0  0  0  0  0  0  0  0  0  0
   -0.5186   -1.9428    9.4905 C   0  0  0  0  0  0  0  0  0  0  0  0
   -0.8504   -0.9462    7.0498 C   0  0  0  0  0  0  0  0  0  0  0  0
   -1.7827   -0.5300    6.1037 C   0  0  0  0  0  0  0  0  0  0  0  0
   -3.1344   -0.5779    6.3886 C   0  0  0  0  0  0  0  0  0  0  0  0
   -3.5608   -1.0411    7.6189 C   0  0  0  0  0  0  0  0  0  0  0  0
  1  2  1  0
  2  3  1  0
  3  4  2  0
  3  5  1  0
  5  6  2  0
  6  7  1  0
  7  8  1  0
  8  9  2  0
  9 10  1  0
 10 11  1  0
 11 12  2  0
 11 13  1  0
  7 14  1  0
 15 14  1  1
 15 16  1  0
 16 17  1  0
 17 18  2  0
 18 19  1  0
 19 20  1  0
 20 21  1  0
 19 22  2  0
 22 23  1  0
 23 24  2  0
 23 25  1  0
 25 26  1  0
 22 27  1  0
 16 28  1  1
 15 29  1  0
 29 30  1  0
 30 31  1  0
 31 32  1  0
 32 33  2  0
 33 34  1  0
 33 35  1  0
 35 36  2  0
 36 37  1  0
 37 38  2  0
  9  5  1  0
 24 17  1  0
 34 30  1  0
 38 32  1  0
M  CHG  1  13  -1
M  END
$$$$
