
     RDKit          3D

 38 41  0  0  0  0  0  0  0  0999 V2000
   -1.3998   -4.4916   18.6827 C   0  0  0  0  0  0  0  0  0  0  0  0
   -1.0793   -4.7629   17.3220 O   0  0  0  0  0  0  0  0  0  0  0  0
   -1.8008   -5.7312   16.6545 C   0  0  0  0  0  0  0  0  0  0  0  0
   -2.0083   -6.8428   17.1758 O   0  0  0  0  0  0  0  0  0  0  0  0
   -2.3514   -5.4939   15.3093 C   0  0  0  0  0  0  0  0  0  0  0  0
   -2.5889   -4.2814   14.7035 C   0  0  0  0  0  0  0  0  0  0  0  0
   -3.0855   -4.4787   13.4996 N   0  0  0  0  0  0  0  0  0  0  0  0
   -3.1842   -5.7964   13.2901 C   0  0  0  0  0  0  0  0  0  0  0  0
   -2.7356   -6.4616   14.3968 C   0  0  0  0  0  0  0  0  0  0  0  0
   -2.6610   -7.9297   14.6107 C   0  0  0  0  0  0  0  0  0  0  0  0
   -3.9750   -8.4792   15.0049 C   0  0  0  0  0  0  0  0  0  0  0  0
   -4.7491   -8.9476   14.1462 O   0  0  0  0  0  0  0  0  0  0  0  0
   -4.3691   -8.4839   16.3297 O   0  0  0  0  0  1  0  0  0  0  0  0
   -3.5008   -3.4846   12.4632 C   0  0  0  0  0  0  0  0  0  0  0  0
   -2.3378   -2.6286   12.2009 C   0  0  1  0  0  0  0  0  0  0  0  0
   -1.8583   -2.7790   10.7928 C   0  0  1  0  0  0  0  0  0  0  0  0
   -2.6308   -2.1685    9.7073 C   0  0  0  0  0  0  0  0  0  0  0  0
   -2.5759   -2.4343    8.3706 C   0  0  0  0  0  0  0  0  0  0  0  0
   -3.3494   -1.7543    7.4226 C   0  0  0  0  0  0  0  0  0  0  0  0
   -3.2644   -2.0523    6.0756 O   0  0  0  0  0  0  0  0  0  0  0  0
   -2.4930   -3.0719    5.5075 C   0  0  0  0  0  0  0  0  0  0  0  0
   -4.2121   -0.7729    7.8166 C   0  0  0  0  0  0  0  0  0  0  0  0
   -4.2975   -0.4753    9.1590 C   0  0  0  0  0  0  0  0  0  0  0  0
   -3.5465   -1.1380   10.0589 C   0  0  0  0  0  0  0  0  0  0  0  0
   -5.1810    0.5285    9.5567 O   0  0  0  0  0  0  0  0  0  0  0  0
   -5.3765    0.8900   10.8938 C   0  0  0  0  0  0  0  0  0  0  0  0
   -5.0601   -0.0153    6.8424 C   0  0  0  0  0  0  0  0  0  0  0  0
   -0.5331   -2.2812   10.6809 O   0  0  0  0  0  0  0  0  0  0  0  0
   -2.2357   -1.2369   12.6107 C   0  0  0  0  0  0  0  0  0  0  0  0
   -1.0487   -0.5846   13.0982 C   0  0  0  0  0  0  0  0  0  0  0  0
    0.2913   -1.1637   12.7990 C   0  0  0  0  0  0  0  0  0  0  0  0
    1.1740   -0.1492   13.4820 C   0  0  0  0  0  0  0  0  0  0  0  0
    0.5220    1.0602   13.4277 C   0  0  0  0  0  0  0  0  0  0  0  0
   -0.8251    0.8735   12.7496 C   0  0  0  0  0  0  0  0  0  0  0  0
    1.1538    2.1542   13.9761 C   0  0  0  0  0  0  0  0  0  0  0  0
    2.4095    2.0215   14.5620 C   0  0  0  0  0  0  0  0  0  0  0  0
    3.0349    0.7894   14.5993 C   0  0  0  0  0  0  0  0  0  0  0  0
    2.4098   -0.3148   14.0516 C   0  0  0  0  0  0  0  0  0  0  0  0
  1  2  1  0
  2  3  1  0
  3  4  2  0
  3  5  1  0
  5  6  2  0
  6  7  1  0
  7  8  1  0
  8  9  2  0
  9 10  1  0
 10 11  1  0
 11 12  2  0
 11 13  1  0
  7 14  1  0
 15 14  1  6
 15 16  1  0
 16 17  1  0
 17 18  2  0
 18 19  1  0
 19 20  1  0
 20 21  1  0
 19 22  2  0
 22 23  1  0
 23 24  2  0
 23 25  1  0
 25 26  1  0
 22 27  1  0
 16 28  1  1
 15 29  1  0
 29 30  1  0
 30 31  1  0
 31 32  1  0
 32 33  2  0
 33 34  1  0
 33 35  1  0
 35 36  2  0
 36 37  1  0
 37 38  2  0
  9  5  1  0
 24 17  1  0
 34 30  1  0
 38 32  1  0
M  CHG  1  13  -1
M  END
$$$$
