
     RDKit          3D

 38 41  0  0  0  0  0  0  0  0999 V2000
   -1.2278  -10.3723   13.1421 C   0  0  0  0  0  0  0  0  0  0  0  0
   -1.8925   -9.1129   13.1429 O   0  0  0  0  0  0  0  0  0  0  0  0
   -2.4162   -8.6439   14.3301 C   0  0  0  0  0  0  0  0  0  0  0  0
   -2.3715   -9.3374   15.3634 O   0  0  0  0  0  0  0  0  0  0  0  0
   -3.0448   -7.3155   14.4255 C   0  0  0  0  0  0  0  0  0  0  0  0
   -3.2406   -6.4069   13.4107 C   0  0  0  0  0  0  0  0  0  0  0  0
   -3.8355   -5.3329   13.8879 N   0  0  0  0  0  0  0  0  0  0  0  0
   -4.0402   -5.5062   15.1987 C   0  0  0  0  0  0  0  0  0  0  0  0
   -3.5602   -6.7311   15.5697 C   0  0  0  0  0  0  0  0  0  0  0  0
   -3.5735   -7.3442   16.9228 C   0  0  0  0  0  0  0  0  0  0  0  0
   -4.6205   -8.3816   17.0285 C   0  0  0  0  0  0  0  0  0  0  0  0
   -5.3169   -8.6820   16.0382 O   0  0  0  0  0  0  0  0  0  0  0  0
   -4.8465   -9.0365   18.2245 O   0  0  0  0  0  1  0  0  0  0  0  0
   -4.2565   -4.0826   13.1848 C   0  0  0  0  0  0  0  0  0  0  0  0
   -3.1641   -3.1151   13.3413 C   0  0  1  0  0  0  0  0  0  0  0  0
   -3.6872   -1.7212   13.4774 C   0  0  1  0  0  0  0  0  0  0  0  0
   -3.0916   -0.6538   12.6689 C   0  0  0  0  0  0  0  0  0  0  0  0
   -2.6170   -0.7183   11.3918 C   0  0  0  0  0  0  0  0  0  0  0  0
   -2.0371    0.3731   10.7346 C   0  0  0  0  0  0  0  0  0  0  0  0
   -1.5667    0.2674    9.4394 O   0  0  0  0  0  0  0  0  0  0  0  0
   -2.1293   -0.5121    8.4227 C   0  0  0  0  0  0  0  0  0  0  0  0
   -1.9246    1.5761   11.3694 C   0  0  0  0  0  0  0  0  0  0  0  0
   -2.3934    1.6824   12.6605 C   0  0  0  0  0  0  0  0  0  0  0  0
   -2.9484    0.6232   13.2794 C   0  0  0  0  0  0  0  0  0  0  0  0
   -2.2763    2.9142   13.3048 O   0  0  0  0  0  0  0  0  0  0  0  0
   -1.7619    3.0555   14.5980 C   0  0  0  0  0  0  0  0  0  0  0  0
   -1.3112    2.7731   10.7112 C   0  0  0  0  0  0  0  0  0  0  0  0
   -5.0823   -1.7037   13.2128 O   0  0  0  0  0  0  0  0  0  0  0  0
   -2.0239   -3.3024   14.2245 C   0  0  0  0  0  0  0  0  0  0  0  0
   -0.6381   -3.2353   13.8410 C   0  0  0  0  0  0  0  0  0  0  0  0
   -0.2739   -3.0221   12.4119 C   0  0  0  0  0  0  0  0  0  0  0  0
    1.2301   -3.0088   12.5235 C   0  0  0  0  0  0  0  0  0  0  0  0
    1.5419   -2.5118   13.7671 C   0  0  0  0  0  0  0  0  0  0  0  0
    0.2585   -2.2246   14.5284 C   0  0  0  0  0  0  0  0  0  0  0  0
    2.8745   -2.3852   14.0912 C   0  0  0  0  0  0  0  0  0  0  0  0
    3.8589   -2.7535   13.1786 C   0  0  0  0  0  0  0  0  0  0  0  0
    3.5083   -3.2504   11.9373 C   0  0  0  0  0  0  0  0  0  0  0  0
    2.1740   -3.3811   11.6018 C   0  0  0  0  0  0  0  0  0  0  0  0
  1  2  1  0
  2  3  1  0
  3  4  2  0
  3  5  1  0
  5  6  2  0
  6  7  1  0
  7  8  1  0
  8  9  2  0
  9 10  1  0
 10 11  1  0
 11 12  2  0
 11 13  1  0
  7 14  1  0
 15 14  1  1
 15 16  1  0
 16 17  1  0
 17 18  2  0
 18 19  1  0
 19 20  1  0
 20 21  1  0
 19 22  2  0
 22 23  1  0
 23 24  2  0
 23 25  1  0
 25 26  1  0
 22 27  1  0
 16 28  1  6
 15 29  1  0
 29 30  1  0
 30 31  1  0
 31 32  1  0
 32 33  2  0
 33 34  1  0
 33 35  1  0
 35 36  2  0
 36 37  1  0
 37 38  2  0
  9  5  1  0
 24 17  1  0
 34 30  1  0
 38 32  1  0
M  CHG  1  13  -1
M  END
$$$$
