
     RDKit          3D

 38 41  0  0  0  0  0  0  0  0999 V2000
   -0.7728   -5.9662   18.3785 C   0  0  0  0  0  0  0  0  0  0  0  0
   -1.0161   -5.7706   16.9892 O   0  0  0  0  0  0  0  0  0  0  0  0
   -2.0675   -6.4440   16.4021 C   0  0  0  0  0  0  0  0  0  0  0  0
   -2.7401   -7.2652   17.0530 O   0  0  0  0  0  0  0  0  0  0  0  0
   -2.4361   -6.2226   14.9935 C   0  0  0  0  0  0  0  0  0  0  0  0
   -1.6772   -5.6255   14.0131 C   0  0  0  0  0  0  0  0  0  0  0  0
   -2.3497   -5.6117   12.8807 N   0  0  0  0  0  0  0  0  0  0  0  0
   -3.5404   -6.1865   13.0852 C   0  0  0  0  0  0  0  0  0  0  0  0
   -3.6302   -6.5801   14.3912 C   0  0  0  0  0  0  0  0  0  0  0  0
   -4.7680   -7.2592   15.0629 C   0  0  0  0  0  0  0  0  0  0  0  0
   -4.7259   -8.7192   14.8386 C   0  0  0  0  0  0  0  0  0  0  0  0
   -4.1654   -9.1890   13.8282 O   0  0  0  0  0  0  0  0  0  0  0  0
   -5.3061   -9.5889   15.7428 O   0  0  0  0  0  1  0  0  0  0  0  0
   -1.9543   -5.0772   11.5417 C   0  0  0  0  0  0  0  0  0  0  0  0
   -2.2652   -3.6429   11.5446 C   0  0  1  0  0  0  0  0  0  0  0  0
   -2.3069   -3.0925   10.1552 C   0  0  1  0  0  0  0  0  0  0  0  0
   -1.6574   -1.8085    9.8770 C   0  0  0  0  0  0  0  0  0  0  0  0
   -0.3409   -1.4760   10.0051 C   0  0  0  0  0  0  0  0  0  0  0  0
    0.1548   -0.1949    9.7356 C   0  0  0  0  0  0  0  0  0  0  0  0
    1.4968    0.1031    9.8786 O   0  0  0  0  0  0  0  0  0  0  0  0
    2.3760   -0.4872   10.7929 C   0  0  0  0  0  0  0  0  0  0  0  0
   -0.6890    0.7948    9.3219 C   0  0  0  0  0  0  0  0  0  0  0  0
   -2.0268    0.4984    9.1791 C   0  0  0  0  0  0  0  0  0  0  0  0
   -2.4885   -0.7386    9.4426 C   0  0  0  0  0  0  0  0  0  0  0  0
   -2.8852    1.5134    8.7556 O   0  0  0  0  0  0  0  0  0  0  0  0
   -4.1033    1.2671    8.1137 C   0  0  0  0  0  0  0  0  0  0  0  0
   -0.2091    2.1812    9.0224 C   0  0  0  0  0  0  0  0  0  0  0  0
   -1.7536   -4.0348    9.2483 O   0  0  0  0  0  0  0  0  0  0  0  0
   -3.3130   -3.0333   12.3482 C   0  0  0  0  0  0  0  0  0  0  0  0
   -3.1506   -1.9163   13.2416 C   0  0  0  0  0  0  0  0  0  0  0  0
   -4.3319   -1.3693   13.9668 C   0  0  0  0  0  0  0  0  0  0  0  0
   -3.6687   -0.2686   14.7562 C   0  0  0  0  0  0  0  0  0  0  0  0
   -2.3792   -0.6713   15.0125 C   0  0  0  0  0  0  0  0  0  0  0  0
   -2.1386   -2.0248   14.3649 C   0  0  0  0  0  0  0  0  0  0  0  0
   -1.5780    0.1737   15.7480 C   0  0  0  0  0  0  0  0  0  0  0  0
   -2.0734    1.3906   16.2077 C   0  0  0  0  0  0  0  0  0  0  0  0
   -3.3752    1.7631   15.9301 C   0  0  0  0  0  0  0  0  0  0  0  0
   -4.1877    0.9225   15.1932 C   0  0  0  0  0  0  0  0  0  0  0  0
  1  2  1  0
  2  3  1  0
  3  4  2  0
  3  5  1  0
  5  6  2  0
  6  7  1  0
  7  8  1  0
  8  9  2  0
  9 10  1  0
 10 11  1  0
 11 12  2  0
 11 13  1  0
  7 14  1  0
 15 14  1  6
 15 16  1  0
 16 17  1  0
 17 18  2  0
 18 19  1  0
 19 20  1  0
 20 21  1  0
 19 22  2  0
 22 23  1  0
 23 24  2  0
 23 25  1  0
 25 26  1  0
 22 27  1  0
 16 28  1  6
 15 29  1  0
 29 30  1  0
 30 31  1  0
 31 32  1  0
 32 33  2  0
 33 34  1  0
 33 35  1  0
 35 36  2  0
 36 37  1  0
 37 38  2  0
  9  5  1  0
 24 17  1  0
 34 30  1  0
 38 32  1  0
M  CHG  1  13  -1
M  END
$$$$
