
     RDKit          3D

 38 41  0  0  0  0  0  0  0  0999 V2000
   -0.5302   -5.8847   17.7057 C   0  0  0  0  0  0  0  0  0  0  0  0
   -1.0038   -5.5945   16.3944 O   0  0  0  0  0  0  0  0  0  0  0  0
   -1.9740   -6.4092   15.8479 C   0  0  0  0  0  0  0  0  0  0  0  0
   -2.4473   -7.3597   16.4983 O   0  0  0  0  0  0  0  0  0  0  0  0
   -2.4868   -6.1917   14.4845 C   0  0  0  0  0  0  0  0  0  0  0  0
   -2.0099   -5.3109   13.5410 C   0  0  0  0  0  0  0  0  0  0  0  0
   -2.7309   -5.4063   12.4429 N   0  0  0  0  0  0  0  0  0  0  0  0
   -3.6782   -6.3316   12.6343 C   0  0  0  0  0  0  0  0  0  0  0  0
   -3.5571   -6.8434   13.8960 C   0  0  0  0  0  0  0  0  0  0  0  0
   -4.3909   -7.8912   14.5392 C   0  0  0  0  0  0  0  0  0  0  0  0
   -4.0080   -9.2397   14.0716 C   0  0  0  0  0  0  0  0  0  0  0  0
   -3.0899   -9.8686   14.6351 O   0  0  0  0  0  0  0  0  0  0  0  0
   -4.6591   -9.8273   13.0033 O   0  0  0  0  0  1  0  0  0  0  0  0
   -2.6056   -4.6650   11.1508 C   0  0  0  0  0  0  0  0  0  0  0  0
   -2.4666   -3.2428   11.4850 C   0  0  1  0  0  0  0  0  0  0  0  0
   -2.1930   -2.4217   10.2659 C   0  0  1  0  0  0  0  0  0  0  0  0
   -1.6918   -1.0537   10.4252 C   0  0  0  0  0  0  0  0  0  0  0  0
   -0.5463   -0.6333   11.0348 C   0  0  0  0  0  0  0  0  0  0  0  0
   -0.1917    0.7158   11.1506 C   0  0  0  0  0  0  0  0  0  0  0  0
    0.9782    1.1021   11.7770 O   0  0  0  0  0  0  0  0  0  0  0  0
    2.0308    0.2565   12.1438 C   0  0  0  0  0  0  0  0  0  0  0  0
   -1.0052    1.6858   10.6405 C   0  0  0  0  0  0  0  0  0  0  0  0
   -2.1714    1.3016   10.0159 C   0  0  0  0  0  0  0  0  0  0  0  0
   -2.4990   -0.0003    9.9128 C   0  0  0  0  0  0  0  0  0  0  0  0
   -2.9993    2.2968    9.4959 O   0  0  0  0  0  0  0  0  0  0  0  0
   -4.3828    2.1450    9.3552 C   0  0  0  0  0  0  0  0  0  0  0  0
   -0.6720    3.1423   10.7396 C   0  0  0  0  0  0  0  0  0  0  0  0
   -1.2693   -3.0999    9.4272 O   0  0  0  0  0  0  0  0  0  0  0  0
   -3.3595   -2.5195   12.3766 C   0  0  0  0  0  0  0  0  0  0  0  0
   -3.7156   -2.9106   13.7154 C   0  0  0  0  0  0  0  0  0  0  0  0
   -2.7498   -2.7008   14.8306 C   0  0  0  0  0  0  0  0  0  0  0  0
   -3.5622   -3.2324   15.9848 C   0  0  0  0  0  0  0  0  0  0  0  0
   -4.8858   -3.0031   15.6911 C   0  0  0  0  0  0  0  0  0  0  0  0
   -4.9902   -2.3561   14.3201 C   0  0  0  0  0  0  0  0  0  0  0  0
   -5.8251   -3.3895   16.6213 C   0  0  0  0  0  0  0  0  0  0  0  0
   -5.4298   -3.9912   17.8127 C   0  0  0  0  0  0  0  0  0  0  0  0
   -4.0897   -4.2068   18.0739 C   0  0  0  0  0  0  0  0  0  0  0  0
   -3.1390   -3.8225   17.1475 C   0  0  0  0  0  0  0  0  0  0  0  0
  1  2  1  0
  2  3  1  0
  3  4  2  0
  3  5  1  0
  5  6  2  0
  6  7  1  0
  7  8  1  0
  8  9  2  0
  9 10  1  0
 10 11  1  0
 11 12  2  0
 11 13  1  0
  7 14  1  0
 15 14  1  6
 15 16  1  0
 16 17  1  0
 17 18  2  0
 18 19  1  0
 19 20  1  0
 20 21  1  0
 19 22  2  0
 22 23  1  0
 23 24  2  0
 23 25  1  0
 25 26  1  0
 22 27  1  0
 16 28  1  6
 15 29  1  0
 29 30  1  0
 30 31  1  0
 31 32  1  0
 32 33  2  0
 33 34  1  0
 33 35  1  0
 35 36  2  0
 36 37  1  0
 37 38  2  0
  9  5  1  0
 24 17  1  0
 34 30  1  0
 38 32  1  0
M  CHG  1  13  -1
M  END
$$$$
