
     RDKit          3D

 38 41  0  0  0  0  0  0  0  0999 V2000
   -3.2224   -6.1316   19.4194 C   0  0  0  0  0  0  0  0  0  0  0  0
   -3.1524   -5.5947   18.1023 O   0  0  0  0  0  0  0  0  0  0  0  0
   -3.1768   -6.4658   17.0325 C   0  0  0  0  0  0  0  0  0  0  0  0
   -3.2280   -7.6965   17.2149 O   0  0  0  0  0  0  0  0  0  0  0  0
   -3.1438   -5.9820   15.6419 C   0  0  0  0  0  0  0  0  0  0  0  0
   -3.3166   -4.6902   15.2003 C   0  0  0  0  0  0  0  0  0  0  0  0
   -3.2174   -4.6550   13.8874 N   0  0  0  0  0  0  0  0  0  0  0  0
   -2.9823   -5.8954   13.4445 C   0  0  0  0  0  0  0  0  0  0  0  0
   -2.9296   -6.7499   14.5101 C   0  0  0  0  0  0  0  0  0  0  0  0
   -2.6915   -8.2161   14.4926 C   0  0  0  0  0  0  0  0  0  0  0  0
   -3.9375   -8.9626   14.7642 C   0  0  0  0  0  0  0  0  0  0  0  0
   -4.0242   -9.7097   15.7593 O   0  0  0  0  0  0  0  0  0  0  0  0
   -5.0273   -8.8467   13.9220 O   0  0  0  0  0  1  0  0  0  0  0  0
   -3.3286   -3.4941   12.9521 C   0  0  0  0  0  0  0  0  0  0  0  0
   -2.0661   -3.4221   12.2072 C   0  0  1  0  0  0  0  0  0  0  0  0
   -2.2909   -2.9785   10.7973 C   0  0  1  0  0  0  0  0  0  0  0  0
   -2.6243   -1.5754   10.5357 C   0  0  0  0  0  0  0  0  0  0  0  0
   -3.8515   -1.0173   10.3287 C   0  0  0  0  0  0  0  0  0  0  0  0
   -4.0374    0.3427   10.0547 C   0  0  0  0  0  0  0  0  0  0  0  0
   -5.2982    0.8706    9.8497 O   0  0  0  0  0  0  0  0  0  0  0  0
   -6.4896    0.1418    9.7655 C   0  0  0  0  0  0  0  0  0  0  0  0
   -2.9635    1.1820    9.9844 C   0  0  0  0  0  0  0  0  0  0  0  0
   -1.7065    0.6567   10.1888 C   0  0  0  0  0  0  0  0  0  0  0  0
   -1.5438   -0.6539   10.4510 C   0  0  0  0  0  0  0  0  0  0  0  0
   -0.6120    1.5188   10.1161 O   0  0  0  0  0  0  0  0  0  0  0  0
    0.7060    1.1018   10.3301 C   0  0  0  0  0  0  0  0  0  0  0  0
   -3.1088    2.6436    9.6930 C   0  0  0  0  0  0  0  0  0  0  0  0
   -1.1477   -3.2799   10.0107 O   0  0  0  0  0  0  0  0  0  0  0  0
   -0.8435   -2.8266   12.7226 C   0  0  0  0  0  0  0  0  0  0  0  0
   -0.2968   -3.0253   14.0394 C   0  0  0  0  0  0  0  0  0  0  0  0
    1.1788   -3.1232   14.2223 C   0  0  0  0  0  0  0  0  0  0  0  0
    1.2465   -3.3030   15.7182 C   0  0  0  0  0  0  0  0  0  0  0  0
    0.1679   -2.6419   16.2571 C   0  0  0  0  0  0  0  0  0  0  0  0
   -0.6660   -2.0455   15.1354 C   0  0  0  0  0  0  0  0  0  0  0  0
    0.0308   -2.6493   17.6275 C   0  0  0  0  0  0  0  0  0  0  0  0
    0.9618   -3.3094   18.4244 C   0  0  0  0  0  0  0  0  0  0  0  0
    2.0337   -3.9644   17.8478 C   0  0  0  0  0  0  0  0  0  0  0  0
    2.1808   -3.9628   16.4736 C   0  0  0  0  0  0  0  0  0  0  0  0
  1  2  1  0
  2  3  1  0
  3  4  2  0
  3  5  1  0
  5  6  2  0
  6  7  1  0
  7  8  1  0
  8  9  2  0
  9 10  1  0
 10 11  1  0
 11 12  2  0
 11 13  1  0
  7 14  1  0
 15 14  1  1
 15 16  1  0
 16 17  1  0
 17 18  2  0
 18 19  1  0
 19 20  1  0
 20 21  1  0
 19 22  2  0
 22 23  1  0
 23 24  2  0
 23 25  1  0
 25 26  1  0
 22 27  1  0
 16 28  1  6
 15 29  1  0
 29 30  1  0
 30 31  1  0
 31 32  1  0
 32 33  2  0
 33 34  1  0
 33 35  1  0
 35 36  2  0
 36 37  1  0
 37 38  2  0
  9  5  1  0
 24 17  1  0
 34 30  1  0
 38 32  1  0
M  CHG  1  13  -1
M  END
$$$$
