
     RDKit          3D

 38 41  0  0  0  0  0  0  0  0999 V2000
    0.3147   -2.2596   18.7271 C   0  0  0  0  0  0  0  0  0  0  0  0
    0.0275   -2.7588   17.4247 O   0  0  0  0  0  0  0  0  0  0  0  0
   -0.7689   -3.8795   17.3083 C   0  0  0  0  0  0  0  0  0  0  0  0
   -1.1734   -4.4807   18.3209 O   0  0  0  0  0  0  0  0  0  0  0  0
   -1.1710   -4.4078   15.9937 C   0  0  0  0  0  0  0  0  0  0  0  0
   -0.7016   -4.0250   14.7581 C   0  0  0  0  0  0  0  0  0  0  0  0
   -1.3024   -4.7278   13.8200 N   0  0  0  0  0  0  0  0  0  0  0  0
   -2.1621   -5.5706   14.4038 C   0  0  0  0  0  0  0  0  0  0  0  0
   -2.1077   -5.3997   15.7589 C   0  0  0  0  0  0  0  0  0  0  0  0
   -2.8848   -6.1190   16.8008 C   0  0  0  0  0  0  0  0  0  0  0  0
   -2.0527   -7.1314   17.4837 C   0  0  0  0  0  0  0  0  0  0  0  0
   -2.0296   -7.1970   18.7291 O   0  0  0  0  0  0  0  0  0  0  0  0
   -1.2864   -8.0222   16.7559 O   0  0  0  0  0  1  0  0  0  0  0  0
   -1.1340   -4.6800   12.3354 C   0  0  0  0  0  0  0  0  0  0  0  0
   -2.4655   -4.4555   11.7606 C   0  0  1  0  0  0  0  0  0  0  0  0
   -2.3997   -3.5501   10.5727 C   0  0  1  0  0  0  0  0  0  0  0  0
   -2.1008   -2.1295   10.7745 C   0  0  0  0  0  0  0  0  0  0  0  0
   -2.7360   -1.2334   11.5831 C   0  0  0  0  0  0  0  0  0  0  0  0
   -2.3721    0.1158   11.6648 C   0  0  0  0  0  0  0  0  0  0  0  0
   -3.0417    0.9935   12.4963 O   0  0  0  0  0  0  0  0  0  0  0  0
   -3.3341    0.7825   13.8482 C   0  0  0  0  0  0  0  0  0  0  0  0
   -1.3366    0.5942   10.9154 C   0  0  0  0  0  0  0  0  0  0  0  0
   -0.6685   -0.2801   10.0865 C   0  0  0  0  0  0  0  0  0  0  0  0
   -1.0308   -1.5751   10.0185 C   0  0  0  0  0  0  0  0  0  0  0  0
    0.3894    0.2138    9.3228 O   0  0  0  0  0  0  0  0  0  0  0  0
    0.7304   -0.2981    8.0665 C   0  0  0  0  0  0  0  0  0  0  0  0
   -0.9092    2.0285   10.9656 C   0  0  0  0  0  0  0  0  0  0  0  0
   -1.4417   -4.0413    9.6467 O   0  0  0  0  0  0  0  0  0  0  0  0
   -3.4446   -5.5053   11.5268 C   0  0  0  0  0  0  0  0  0  0  0  0
   -4.4427   -5.9532   12.4624 C   0  0  0  0  0  0  0  0  0  0  0  0
   -5.4868   -5.0049   12.9430 C   0  0  0  0  0  0  0  0  0  0  0  0
   -6.2717   -5.9174   13.8518 C   0  0  0  0  0  0  0  0  0  0  0  0
   -6.1712   -7.1888   13.3380 C   0  0  0  0  0  0  0  0  0  0  0  0
   -5.2840   -7.1624   12.1046 C   0  0  0  0  0  0  0  0  0  0  0  0
   -6.8341   -8.2006   13.9967 C   0  0  0  0  0  0  0  0  0  0  0  0
   -7.5753   -7.9271   15.1427 C   0  0  0  0  0  0  0  0  0  0  0  0
   -7.6534   -6.6365   15.6312 C   0  0  0  0  0  0  0  0  0  0  0  0
   -6.9924   -5.6138   14.9777 C   0  0  0  0  0  0  0  0  0  0  0  0
  1  2  1  0
  2  3  1  0
  3  4  2  0
  3  5  1  0
  5  6  2  0
  6  7  1  0
  7  8  1  0
  8  9  2  0
  9 10  1  0
 10 11  1  0
 11 12  2  0
 11 13  1  0
  7 14  1  0
 15 14  1  6
 15 16  1  0
 16 17  1  0
 17 18  2  0
 18 19  1  0
 19 20  1  0
 20 21  1  0
 19 22  2  0
 22 23  1  0
 23 24  2  0
 23 25  1  0
 25 26  1  0
 22 27  1  0
 16 28  1  6
 15 29  1  0
 29 30  1  0
 30 31  1  0
 31 32  1  0
 32 33  2  0
 33 34  1  0
 33 35  1  0
 35 36  2  0
 36 37  1  0
 37 38  2  0
  9  5  1  0
 24 17  1  0
 34 30  1  0
 38 32  1  0
M  CHG  1  13  -1
M  END
$$$$
