
     RDKit          3D

 38 41  0  0  0  0  0  0  0  0999 V2000
    0.3821   -6.4240   16.7286 C   0  0  0  0  0  0  0  0  0  0  0  0
   -0.1746   -5.9415   15.5100 O   0  0  0  0  0  0  0  0  0  0  0  0
   -1.1136   -6.7165   14.8609 C   0  0  0  0  0  0  0  0  0  0  0  0
   -1.4964   -7.7956   15.3503 O   0  0  0  0  0  0  0  0  0  0  0  0
   -1.6982   -6.3046   13.5735 C   0  0  0  0  0  0  0  0  0  0  0  0
   -1.3104   -5.2524   12.7760 C   0  0  0  0  0  0  0  0  0  0  0  0
   -2.0748   -5.2049   11.7044 N   0  0  0  0  0  0  0  0  0  0  0  0
   -2.9637   -6.2027   11.7706 C   0  0  0  0  0  0  0  0  0  0  0  0
   -2.7594   -6.9100   12.9223 C   0  0  0  0  0  0  0  0  0  0  0  0
   -3.5083   -8.0972   13.4085 C   0  0  0  0  0  0  0  0  0  0  0  0
   -3.8945   -7.9408   14.8263 C   0  0  0  0  0  0  0  0  0  0  0  0
   -3.0232   -7.8695   15.7160 O   0  0  0  0  0  0  0  0  0  0  0  0
   -5.2258   -7.8710   15.1913 O   0  0  0  0  0  1  0  0  0  0  0  0
   -2.0464   -4.2523   10.5526 C   0  0  0  0  0  0  0  0  0  0  0  0
   -2.4735   -2.9459   11.0672 C   0  0  1  0  0  0  0  0  0  0  0  0
   -2.5186   -1.9211    9.9795 C   0  0  1  0  0  0  0  0  0  0  0  0
   -1.8444   -0.6357   10.1824 C   0  0  0  0  0  0  0  0  0  0  0  0
   -0.5762   -0.4013   10.6264 C   0  0  0  0  0  0  0  0  0  0  0  0
   -0.0549    0.8848   10.8097 C   0  0  0  0  0  0  0  0  0  0  0  0
    1.2360    1.0812   11.2627 O   0  0  0  0  0  0  0  0  0  0  0  0
    2.0863    0.0938   11.7722 C   0  0  0  0  0  0  0  0  0  0  0  0
   -0.8219    1.9813   10.5408 C   0  0  0  0  0  0  0  0  0  0  0  0
   -2.1087    1.7865   10.0891 C   0  0  0  0  0  0  0  0  0  0  0  0
   -2.5960    0.5430    9.9182 C   0  0  0  0  0  0  0  0  0  0  0  0
   -2.8884    2.9105    9.8154 O   0  0  0  0  0  0  0  0  0  0  0  0
   -4.1093    2.8476    9.1356 C   0  0  0  0  0  0  0  0  0  0  0  0
   -0.3119    3.3775   10.7217 C   0  0  0  0  0  0  0  0  0  0  0  0
   -1.9960   -2.4712    8.7791 O   0  0  0  0  0  0  0  0  0  0  0  0
   -3.5912   -2.7490   11.9768 C   0  0  0  0  0  0  0  0  0  0  0  0
   -3.5932   -3.0363   13.3873 C   0  0  0  0  0  0  0  0  0  0  0  0
   -3.9169   -4.4107   13.8635 C   0  0  0  0  0  0  0  0  0  0  0  0
   -3.7738   -4.2133   15.3518 C   0  0  0  0  0  0  0  0  0  0  0  0
   -2.8248   -3.2369   15.5439 C   0  0  0  0  0  0  0  0  0  0  0  0
   -2.3464   -2.7303   14.1934 C   0  0  0  0  0  0  0  0  0  0  0  0
   -2.5067   -2.8984   16.8404 C   0  0  0  0  0  0  0  0  0  0  0  0
   -3.1350   -3.5331   17.9080 C   0  0  0  0  0  0  0  0  0  0  0  0
   -4.0853   -4.5100   17.6772 C   0  0  0  0  0  0  0  0  0  0  0  0
   -4.4117   -4.8575   16.3800 C   0  0  0  0  0  0  0  0  0  0  0  0
  1  2  1  0
  2  3  1  0
  3  4  2  0
  3  5  1  0
  5  6  2  0
  6  7  1  0
  7  8  1  0
  8  9  2  0
  9 10  1  0
 10 11  1  0
 11 12  2  0
 11 13  1  0
  7 14  1  0
 15 14  1  6
 15 16  1  0
 16 17  1  0
 17 18  2  0
 18 19  1  0
 19 20  1  0
 20 21  1  0
 19 22  2  0
 22 23  1  0
 23 24  2  0
 23 25  1  0
 25 26  1  0
 22 27  1  0
 16 28  1  6
 15 29  1  0
 29 30  1  0
 30 31  1  0
 31 32  1  0
 32 33  2  0
 33 34  1  0
 33 35  1  0
 35 36  2  0
 36 37  1  0
 37 38  2  0
  9  5  1  0
 24 17  1  0
 34 30  1  0
 38 32  1  0
M  CHG  1  13  -1
M  END
$$$$
