
     RDKit          3D

 38 41  0  0  0  0  0  0  0  0999 V2000
   -6.3524   -8.0883   14.2053 C   0  0  0  0  0  0  0  0  0  0  0  0
   -5.5635   -6.9982   13.7395 O   0  0  0  0  0  0  0  0  0  0  0  0
   -4.3729   -6.7238   14.3807 C   0  0  0  0  0  0  0  0  0  0  0  0
   -4.1149   -7.2311   15.4882 O   0  0  0  0  0  0  0  0  0  0  0  0
   -3.3655   -5.8277   13.7883 C   0  0  0  0  0  0  0  0  0  0  0  0
   -3.3247   -5.3499   12.4985 C   0  0  0  0  0  0  0  0  0  0  0  0
   -2.2702   -4.5753   12.3473 N   0  0  0  0  0  0  0  0  0  0  0  0
   -1.6074   -4.5266   13.5085 C   0  0  0  0  0  0  0  0  0  0  0  0
   -2.2608   -5.2954   14.4307 C   0  0  0  0  0  0  0  0  0  0  0  0
   -1.8873   -5.5335   15.8487 C   0  0  0  0  0  0  0  0  0  0  0  0
   -1.4279   -6.9230   16.0536 C   0  0  0  0  0  0  0  0  0  0  0  0
   -1.3542   -7.7141   15.0921 O   0  0  0  0  0  0  0  0  0  0  0  0
   -1.0722   -7.3701   17.3122 O   0  0  0  0  0  1  0  0  0  0  0  0
   -1.7980   -3.8298   11.1406 C   0  0  0  0  0  0  0  0  0  0  0  0
   -1.9029   -2.3996   11.4528 C   0  0  1  0  0  0  0  0  0  0  0  0
   -1.4487   -1.5573   10.3042 C   0  0  1  0  0  0  0  0  0  0  0  0
   -0.8284   -0.2572   10.5746 C   0  0  0  0  0  0  0  0  0  0  0  0
    0.3883    0.0049   11.1325 C   0  0  0  0  0  0  0  0  0  0  0  0
    0.8581    1.3020   11.3696 C   0  0  0  0  0  0  0  0  0  0  0  0
    2.0977    1.5266   11.9383 O   0  0  0  0  0  0  0  0  0  0  0  0
    3.0368    0.5453   12.2741 C   0  0  0  0  0  0  0  0  0  0  0  0
    0.0908    2.3812   11.0393 C   0  0  0  0  0  0  0  0  0  0  0  0
   -1.1448    2.1583   10.4724 C   0  0  0  0  0  0  0  0  0  0  0  0
   -1.5830    0.9045   10.2508 C   0  0  0  0  0  0  0  0  0  0  0  0
   -1.9251    3.2648   10.1362 O   0  0  0  0  0  0  0  0  0  0  0  0
   -3.2465    3.1618    9.6889 C   0  0  0  0  0  0  0  0  0  0  0  0
    0.5468    3.7882   11.2737 C   0  0  0  0  0  0  0  0  0  0  0  0
   -0.5309   -2.2892    9.5051 O   0  0  0  0  0  0  0  0  0  0  0  0
   -3.0548   -1.7828   12.0916 C   0  0  0  0  0  0  0  0  0  0  0  0
   -4.0366   -2.4593   12.8982 C   0  0  0  0  0  0  0  0  0  0  0  0
   -3.6411   -3.0479   14.2088 C   0  0  0  0  0  0  0  0  0  0  0  0
   -4.9690   -3.6041   14.6581 C   0  0  0  0  0  0  0  0  0  0  0  0
   -5.9487   -2.7986   14.1269 C   0  0  0  0  0  0  0  0  0  0  0  0
   -5.3024   -1.7168   13.2777 C   0  0  0  0  0  0  0  0  0  0  0  0
   -7.2589   -3.1025   14.4233 C   0  0  0  0  0  0  0  0  0  0  0  0
   -7.5626   -4.1924   15.2342 C   0  0  0  0  0  0  0  0  0  0  0  0
   -6.5514   -4.9809   15.7502 C   0  0  0  0  0  0  0  0  0  0  0  0
   -5.2333   -4.6845   15.4593 C   0  0  0  0  0  0  0  0  0  0  0  0
  1  2  1  0
  2  3  1  0
  3  4  2  0
  3  5  1  0
  5  6  2  0
  6  7  1  0
  7  8  1  0
  8  9  2  0
  9 10  1  0
 10 11  1  0
 11 12  2  0
 11 13  1  0
  7 14  1  0
 15 14  1  6
 15 16  1  0
 16 17  1  0
 17 18  2  0
 18 19  1  0
 19 20  1  0
 20 21  1  0
 19 22  2  0
 22 23  1  0
 23 24  2  0
 23 25  1  0
 25 26  1  0
 22 27  1  0
 16 28  1  1
 15 29  1  0
 29 30  1  0
 30 31  1  0
 31 32  1  0
 32 33  2  0
 33 34  1  0
 33 35  1  0
 35 36  2  0
 36 37  1  0
 37 38  2  0
  9  5  1  0
 24 17  1  0
 34 30  1  0
 38 32  1  0
M  CHG  1  13  -1
M  END
$$$$
