
     RDKit          3D

 37 40  0  0  0  0  0  0  0  0999 V2000
    1.0648    6.0526    6.7881 C   0  0  0  0  0  0  0  0  0  0  0  0
    0.0299    5.0602    7.3153 C   0  0  0  0  0  0  0  0  0  0  0  0
    0.0372    3.9165    6.3768 C   0  0  0  0  0  0  0  0  0  0  0  0
   -0.3718    3.9975    5.0622 C   0  0  0  0  0  0  0  0  0  0  0  0
   -0.3484    2.8992    4.2205 C   0  0  0  0  0  0  0  0  0  0  0  0
    0.0908    1.6989    4.6986 C   0  0  0  0  0  0  0  0  0  0  0  0
    0.5044    1.5736    5.9914 C   0  0  0  0  0  0  0  0  0  0  0  0
    0.4731    2.6867    6.8187 C   0  0  0  0  0  0  0  0  0  0  0  0
    0.9822    0.2757    6.5186 C   0  0  0  0  0  0  0  0  0  0  0  0
    0.1438   -0.1521    7.5339 F   0  0  0  0  0  0  0  0  0  0  0  0
    0.9350   -0.6969    5.5129 F   0  0  0  0  0  0  0  0  0  0  0  0
    2.2612    0.4105    6.9818 F   0  0  0  0  0  0  0  0  0  0  0  0
   -0.7869    2.9728    2.8001 C   0  0  0  0  0  0  0  0  0  0  0  0
   -2.0865    3.4391    2.7772 F   0  0  0  0  0  0  0  0  0  0  0  0
   -0.0225    3.9080    2.1085 F   0  0  0  0  0  0  0  0  0  0  0  0
   -0.7816    1.7480    2.1806 F   0  0  0  0  0  0  0  0  0  0  0  0
    0.3352    4.7029    8.6237 O   0  0  0  0  0  0  0  0  0  0  0  0
   -0.7661    4.6160    9.4501 C   0  0  0  0  0  0  0  0  0  0  0  0
   -0.3883    4.8374   10.8702 C   0  0  0  0  0  0  0  0  0  0  0  0
   -1.5371    4.9688   11.7521 N   0  0  0  0  0  0  0  0  0  0  0  0
   -2.7672    5.0815   11.0483 C   0  0  0  0  0  0  0  0  0  0  0  0
   -2.5818    6.0187    9.8775 C   0  0  0  0  0  0  0  0  0  0  0  0
   -1.7566    5.4364    8.9564 O   0  0  0  0  0  0  0  0  0  0  0  0
   -1.3279    5.9786   12.7366 C   0  0  0  0  0  0  0  0  0  0  0  0
   -1.7335    5.5212   14.0776 C   0  0  0  0  0  0  0  0  0  0  0  0
   -2.9240    5.6142   14.6933 N   0  0  0  0  0  0  0  0  0  0  0  0
   -2.8812    5.0714   15.9194 C   0  0  0  0  0  0  0  0  0  0  0  0
   -3.8037    4.9819   16.7704 O   0  0  0  0  0  0  0  0  0  0  0  0
   -1.6262    4.6189   16.0907 N   0  0  0  0  0  0  0  0  0  0  0  0
   -0.9424    4.8873   14.9923 N   0  0  0  0  0  0  0  0  0  0  0  0
    0.3459    3.6304   11.3455 C   0  0  0  0  0  0  0  0  0  0  0  0
   -0.2745    2.4189   11.5412 C   0  0  0  0  0  0  0  0  0  0  0  0
    0.4874    1.3623   11.9817 C   0  0  0  0  0  0  0  0  0  0  0  0
    1.8552    1.4984   12.2284 C   0  0  0  0  0  0  0  0  0  0  0  0
    2.4867    2.7060   12.0359 C   0  0  0  0  0  0  0  0  0  0  0  0
    1.6928    3.7586   11.5899 C   0  0  0  0  0  0  0  0  0  0  0  0
    2.5855    0.4649   12.6560 F   0  0  0  0  0  0  0  0  0  0  0  0
  1  2  1  0
  2  3  1  0
  3  4  2  0
  4  5  1  0
  5  6  2  0
  6  7  1  0
  7  8  2  0
  7  9  1  0
  9 10  1  0
  9 11  1  0
  9 12  1  0
  5 13  1  0
 13 14  1  0
 13 15  1  0
 13 16  1  0
  2 17  1  0
 17 18  1  0
 18 19  1  0
 19 20  1  0
 20 21  1  0
 21 22  1  0
 22 23  1  0
 20 24  1  0
 24 25  1  0
 25 26  2  0
 26 27  1  0
 27 28  2  0
 27 29  1  0
 29 30  1  0
 19 31  1  0
 31 32  2  0
 32 33  1  0
 33 34  2  0
 34 35  1  0
 35 36  2  0
 34 37  1  0
  8  3  1  0
 23 18  1  0
 30 25  1  0
 36 31  1  0
M  END
$$$$
