
     RDKit          3D

 37 40  0  0  0  0  0  0  0  0999 V2000
    0.3548    3.1218    3.8372 C   0  0  0  0  0  0  0  0  0  0  0  0
   -0.6818    2.7370    4.8914 C   0  0  0  0  0  0  0  0  0  0  0  0
   -0.5197    1.2843    5.1207 C   0  0  0  0  0  0  0  0  0  0  0  0
    0.5707    0.7220    5.7505 C   0  0  0  0  0  0  0  0  0  0  0  0
    0.6799   -0.6443    5.9421 C   0  0  0  0  0  0  0  0  0  0  0  0
   -0.3165   -1.4641    5.4977 C   0  0  0  0  0  0  0  0  0  0  0  0
   -1.4123   -0.9509    4.8699 C   0  0  0  0  0  0  0  0  0  0  0  0
   -1.5023    0.4214    4.6877 C   0  0  0  0  0  0  0  0  0  0  0  0
   -2.4976   -1.8323    4.3844 C   0  0  0  0  0  0  0  0  0  0  0  0
   -2.0512   -2.5671    3.2992 F   0  0  0  0  0  0  0  0  0  0  0  0
   -2.8522   -2.7495    5.3807 F   0  0  0  0  0  0  0  0  0  0  0  0
   -3.5817   -1.0767    4.0345 F   0  0  0  0  0  0  0  0  0  0  0  0
    1.8509   -1.2641    6.6200 C   0  0  0  0  0  0  0  0  0  0  0  0
    1.4010   -2.3523    7.3415 F   0  0  0  0  0  0  0  0  0  0  0  0
    2.7450   -1.7618    5.6766 F   0  0  0  0  0  0  0  0  0  0  0  0
    2.4620   -0.4118    7.5053 F   0  0  0  0  0  0  0  0  0  0  0  0
   -0.5010    3.5007    6.0390 O   0  0  0  0  0  0  0  0  0  0  0  0
   -1.6465    3.6570    6.7917 C   0  0  0  0  0  0  0  0  0  0  0  0
   -1.3624    4.3908    8.0523 C   0  0  0  0  0  0  0  0  0  0  0  0
   -2.5659    4.7678    8.7763 N   0  0  0  0  0  0  0  0  0  0  0  0
   -3.7545    4.5566    8.0254 C   0  0  0  0  0  0  0  0  0  0  0  0
   -3.5303    5.0219    6.6053 C   0  0  0  0  0  0  0  0  0  0  0  0
   -2.6322    4.1934    5.9927 O   0  0  0  0  0  0  0  0  0  0  0  0
   -2.4501    6.0723    9.3400 C   0  0  0  0  0  0  0  0  0  0  0  0
   -1.9587    6.0216   10.7285 C   0  0  0  0  0  0  0  0  0  0  0  0
   -0.8683    6.5850   11.2750 N   0  0  0  0  0  0  0  0  0  0  0  0
   -0.7751    6.2969   12.5819 C   0  0  0  0  0  0  0  0  0  0  0  0
    0.1095    6.6533   13.4027 O   0  0  0  0  0  0  0  0  0  0  0  0
   -1.8376    5.5269   12.8777 N   0  0  0  0  0  0  0  0  0  0  0  0
   -2.5429    5.3632   11.7723 N   0  0  0  0  0  0  0  0  0  0  0  0
   -0.6183    3.4738    8.9619 C   0  0  0  0  0  0  0  0  0  0  0  0
   -1.1195    2.2538    9.3512 C   0  0  0  0  0  0  0  0  0  0  0  0
   -0.3585    1.4773   10.1931 C   0  0  0  0  0  0  0  0  0  0  0  0
    0.8916    1.9008   10.6498 C   0  0  0  0  0  0  0  0  0  0  0  0
    1.4031    3.1196   10.2667 C   0  0  0  0  0  0  0  0  0  0  0  0
    0.6129    3.8855    9.4146 C   0  0  0  0  0  0  0  0  0  0  0  0
    1.6222    1.1379   11.4674 F   0  0  0  0  0  0  0  0  0  0  0  0
  1  2  1  0
  2  3  1  0
  3  4  2  0
  4  5  1  0
  5  6  2  0
  6  7  1  0
  7  8  2  0
  7  9  1  0
  9 10  1  0
  9 11  1  0
  9 12  1  0
  5 13  1  0
 13 14  1  0
 13 15  1  0
 13 16  1  0
  2 17  1  0
 17 18  1  0
 18 19  1  0
 19 20  1  0
 20 21  1  0
 21 22  1  0
 22 23  1  0
 20 24  1  0
 24 25  1  0
 25 26  2  0
 26 27  1  0
 27 28  2  0
 27 29  1  0
 29 30  1  0
 19 31  1  0
 31 32  2  0
 32 33  1  0
 33 34  2  0
 34 35  1  0
 35 36  2  0
 34 37  1  0
  8  3  1  0
 23 18  1  0
 30 25  1  0
 36 31  1  0
M  END
$$$$
