
     RDKit          3D

 37 40  0  0  0  0  0  0  0  0999 V2000
    1.4112    4.8014    6.1240 C   0  0  0  0  0  0  0  0  0  0  0  0
    0.1082    4.1009    6.5052 C   0  0  0  0  0  0  0  0  0  0  0  0
    0.2419    2.7002    6.0481 C   0  0  0  0  0  0  0  0  0  0  0  0
   -0.4916    2.1547    5.0154 C   0  0  0  0  0  0  0  0  0  0  0  0
   -0.3332    0.8371    4.6227 C   0  0  0  0  0  0  0  0  0  0  0  0
    0.5731    0.0498    5.2716 C   0  0  0  0  0  0  0  0  0  0  0  0
    1.3194    0.5478    6.2978 C   0  0  0  0  0  0  0  0  0  0  0  0
    1.1452    1.8712    6.6760 C   0  0  0  0  0  0  0  0  0  0  0  0
    2.3044   -0.2987    7.0075 C   0  0  0  0  0  0  0  0  0  0  0  0
    3.5847    0.0315    6.5966 F   0  0  0  0  0  0  0  0  0  0  0  0
    2.2419   -0.0553    8.3846 F   0  0  0  0  0  0  0  0  0  0  0  0
    2.0470   -1.6166    6.7514 F   0  0  0  0  0  0  0  0  0  0  0  0
   -1.1181    0.2360    3.5102 C   0  0  0  0  0  0  0  0  0  0  0  0
   -1.2173   -1.1218    3.7416 F   0  0  0  0  0  0  0  0  0  0  0  0
   -2.4190    0.7309    3.5170 F   0  0  0  0  0  0  0  0  0  0  0  0
   -0.5144    0.3989    2.2884 F   0  0  0  0  0  0  0  0  0  0  0  0
   -0.1130    4.2167    7.8729 O   0  0  0  0  0  0  0  0  0  0  0  0
   -1.3676    3.8045    8.2723 C   0  0  0  0  0  0  0  0  0  0  0  0
   -1.4476    3.6908    9.7518 C   0  0  0  0  0  0  0  0  0  0  0  0
   -2.8014    3.4689   10.2344 N   0  0  0  0  0  0  0  0  0  0  0  0
   -3.7852    3.6292    9.2207 C   0  0  0  0  0  0  0  0  0  0  0  0
   -3.4501    4.8508    8.3965 C   0  0  0  0  0  0  0  0  0  0  0  0
   -2.3103    4.6157    7.6797 O   0  0  0  0  0  0  0  0  0  0  0  0
   -3.0592    4.2070   11.4266 C   0  0  0  0  0  0  0  0  0  0  0  0
   -2.3682    5.5087   11.4190 C   0  0  0  0  0  0  0  0  0  0  0  0
   -1.0667    5.7915   11.5954 N   0  0  0  0  0  0  0  0  0  0  0  0
   -0.8404    7.1113   11.5145 C   0  0  0  0  0  0  0  0  0  0  0  0
    0.2500    7.7288   11.6289 O   0  0  0  0  0  0  0  0  0  0  0  0
   -2.0330    7.6873   11.2795 N   0  0  0  0  0  0  0  0  0  0  0  0
   -2.9434    6.7314   11.2227 N   0  0  0  0  0  0  0  0  0  0  0  0
   -0.6726    2.4862   10.1642 C   0  0  0  0  0  0  0  0  0  0  0  0
    0.3050    1.9311    9.3723 C   0  0  0  0  0  0  0  0  0  0  0  0
    0.9661    0.8194    9.8393 C   0  0  0  0  0  0  0  0  0  0  0  0
    0.6655    0.2566   11.0816 C   0  0  0  0  0  0  0  0  0  0  0  0
   -0.3108    0.8037   11.8825 C   0  0  0  0  0  0  0  0  0  0  0  0
   -0.9643    1.9280   11.3863 C   0  0  0  0  0  0  0  0  0  0  0  0
    1.3144   -0.8234   11.5250 F   0  0  0  0  0  0  0  0  0  0  0  0
  1  2  1  0
  2  3  1  0
  3  4  2  0
  4  5  1  0
  5  6  2  0
  6  7  1  0
  7  8  2  0
  7  9  1  0
  9 10  1  0
  9 11  1  0
  9 12  1  0
  5 13  1  0
 13 14  1  0
 13 15  1  0
 13 16  1  0
  2 17  1  0
 17 18  1  0
 18 19  1  0
 19 20  1  0
 20 21  1  0
 21 22  1  0
 22 23  1  0
 20 24  1  0
 24 25  1  0
 25 26  2  0
 26 27  1  0
 27 28  2  0
 27 29  1  0
 29 30  1  0
 19 31  1  0
 31 32  2  0
 32 33  1  0
 33 34  2  0
 34 35  1  0
 35 36  2  0
 34 37  1  0
  8  3  1  0
 23 18  1  0
 30 25  1  0
 36 31  1  0
M  END
$$$$
