
     RDKit          3D

 37 40  0  0  0  0  0  0  0  0999 V2000
    0.7447    5.8630    6.2286 C   0  0  0  0  0  0  0  0  0  0  0  0
   -0.2305    4.8063    6.7445 C   0  0  0  0  0  0  0  0  0  0  0  0
   -0.1251    3.6579    5.8177 C   0  0  0  0  0  0  0  0  0  0  0  0
   -0.4229    3.7250    4.4727 C   0  0  0  0  0  0  0  0  0  0  0  0
   -0.3105    2.6228    3.6433 C   0  0  0  0  0  0  0  0  0  0  0  0
    0.1065    1.4327    4.1648 C   0  0  0  0  0  0  0  0  0  0  0  0
    0.4114    1.3212    5.4887 C   0  0  0  0  0  0  0  0  0  0  0  0
    0.2919    2.4380    6.3030 C   0  0  0  0  0  0  0  0  0  0  0  0
    0.8641    0.0345    6.0630 C   0  0  0  0  0  0  0  0  0  0  0  0
    1.7185    0.2733    7.1260 F   0  0  0  0  0  0  0  0  0  0  0  0
   -0.2304   -0.6757    6.5703 F   0  0  0  0  0  0  0  0  0  0  0  0
    1.4960   -0.7017    5.1001 F   0  0  0  0  0  0  0  0  0  0  0  0
   -0.6285    2.6814    2.1906 C   0  0  0  0  0  0  0  0  0  0  0  0
   -1.2620    3.8825    1.9394 F   0  0  0  0  0  0  0  0  0  0  0  0
    0.5445    2.6927    1.4414 F   0  0  0  0  0  0  0  0  0  0  0  0
   -1.4797    1.6802    1.7945 F   0  0  0  0  0  0  0  0  0  0  0  0
    0.0711    4.4818    8.0623 O   0  0  0  0  0  0  0  0  0  0  0  0
   -1.0354    4.3842    8.8805 C   0  0  0  0  0  0  0  0  0  0  0  0
   -0.6612    4.5520   10.3088 C   0  0  0  0  0  0  0  0  0  0  0  0
   -1.8122    4.6714   11.1896 N   0  0  0  0  0  0  0  0  0  0  0  0
   -3.0369    4.8264   10.4846 C   0  0  0  0  0  0  0  0  0  0  0  0
   -2.8316    5.7995    9.3468 C   0  0  0  0  0  0  0  0  0  0  0  0
   -2.0108    5.2358    8.4103 O   0  0  0  0  0  0  0  0  0  0  0  0
   -1.5924    5.6442   12.2084 C   0  0  0  0  0  0  0  0  0  0  0  0
   -1.9284    5.1174   13.5432 C   0  0  0  0  0  0  0  0  0  0  0  0
   -2.3938    5.7593   14.6279 N   0  0  0  0  0  0  0  0  0  0  0  0
   -2.5727    4.9137   15.6539 C   0  0  0  0  0  0  0  0  0  0  0  0
   -2.9919    5.1647   16.8135 O   0  0  0  0  0  0  0  0  0  0  0  0
   -2.2108    3.6965   15.2104 N   0  0  0  0  0  0  0  0  0  0  0  0
   -1.8268    3.8186   13.9519 N   0  0  0  0  0  0  0  0  0  0  0  0
    0.0523    3.3187   10.7464 C   0  0  0  0  0  0  0  0  0  0  0  0
   -0.5744    2.0984   10.8422 C   0  0  0  0  0  0  0  0  0  0  0  0
    0.1680    1.0171   11.2551 C   0  0  0  0  0  0  0  0  0  0  0  0
    1.5228    1.1373   11.5726 C   0  0  0  0  0  0  0  0  0  0  0  0
    2.1603    2.3534   11.4804 C   0  0  0  0  0  0  0  0  0  0  0  0
    1.3861    3.4310   11.0602 C   0  0  0  0  0  0  0  0  0  0  0  0
    2.2342    0.0799   11.9726 F   0  0  0  0  0  0  0  0  0  0  0  0
  1  2  1  0
  2  3  1  0
  3  4  2  0
  4  5  1  0
  5  6  2  0
  6  7  1  0
  7  8  2  0
  7  9  1  0
  9 10  1  0
  9 11  1  0
  9 12  1  0
  5 13  1  0
 13 14  1  0
 13 15  1  0
 13 16  1  0
  2 17  1  0
 17 18  1  0
 18 19  1  0
 19 20  1  0
 20 21  1  0
 21 22  1  0
 22 23  1  0
 20 24  1  0
 24 25  1  0
 25 26  2  0
 26 27  1  0
 27 28  2  0
 27 29  1  0
 29 30  1  0
 19 31  1  0
 31 32  2  0
 32 33  1  0
 33 34  2  0
 34 35  1  0
 35 36  2  0
 34 37  1  0
  8  3  1  0
 23 18  1  0
 30 25  1  0
 36 31  1  0
M  END
$$$$
