
     RDKit          3D

 37 40  0  0  0  0  0  0  0  0999 V2000
   -1.7126    4.7977    6.0101 C   0  0  0  0  0  0  0  0  0  0  0  0
   -2.2176    3.7520    7.0027 C   0  0  0  0  0  0  0  0  0  0  0  0
   -1.3126    2.5886    6.8750 C   0  0  0  0  0  0  0  0  0  0  0  0
   -0.8721    1.8359    7.9434 C   0  0  0  0  0  0  0  0  0  0  0  0
   -0.0239    0.7553    7.7758 C   0  0  0  0  0  0  0  0  0  0  0  0
    0.3922    0.4195    6.5203 C   0  0  0  0  0  0  0  0  0  0  0  0
   -0.0186    1.1360    5.4358 C   0  0  0  0  0  0  0  0  0  0  0  0
   -0.8689    2.2157    5.6254 C   0  0  0  0  0  0  0  0  0  0  0  0
    0.4277    0.7793    4.0704 C   0  0  0  0  0  0  0  0  0  0  0  0
    0.2257   -0.5729    3.8524 F   0  0  0  0  0  0  0  0  0  0  0  0
   -0.3390    1.4651    3.1210 F   0  0  0  0  0  0  0  0  0  0  0  0
    1.7497    1.0935    3.9222 F   0  0  0  0  0  0  0  0  0  0  0  0
    0.4590   -0.0653    8.9198 C   0  0  0  0  0  0  0  0  0  0  0  0
    0.3540   -1.3960    8.5662 F   0  0  0  0  0  0  0  0  0  0  0  0
    1.8111    0.1745    9.1470 F   0  0  0  0  0  0  0  0  0  0  0  0
   -0.2911    0.1159   10.0548 F   0  0  0  0  0  0  0  0  0  0  0  0
   -2.2500    4.2883    8.2850 O   0  0  0  0  0  0  0  0  0  0  0  0
   -2.0809    3.3535    9.2854 C   0  0  0  0  0  0  0  0  0  0  0  0
   -2.1825    3.9823   10.6280 C   0  0  0  0  0  0  0  0  0  0  0  0
   -2.2254    3.0121   11.7104 N   0  0  0  0  0  0  0  0  0  0  0  0
   -2.3860    1.6759   11.2521 C   0  0  0  0  0  0  0  0  0  0  0  0
   -3.4228    1.6525   10.1529 C   0  0  0  0  0  0  0  0  0  0  0  0
   -2.9307    2.2949    9.0513 O   0  0  0  0  0  0  0  0  0  0  0  0
   -3.1484    3.4010   12.7251 C   0  0  0  0  0  0  0  0  0  0  0  0
   -3.0753    2.5087   13.8958 C   0  0  0  0  0  0  0  0  0  0  0  0
   -3.8181    1.4321   14.2031 N   0  0  0  0  0  0  0  0  0  0  0  0
   -3.4317    0.8912   15.3683 C   0  0  0  0  0  0  0  0  0  0  0  0
   -3.8995   -0.1167   15.9588 O   0  0  0  0  0  0  0  0  0  0  0  0
   -2.4124    1.6452   15.8175 N   0  0  0  0  0  0  0  0  0  0  0  0
   -2.2004    2.6094   14.9392 N   0  0  0  0  0  0  0  0  0  0  0  0
   -0.9465    4.7835   10.8567 C   0  0  0  0  0  0  0  0  0  0  0  0
   -0.6627    5.3733   12.0661 C   0  0  0  0  0  0  0  0  0  0  0  0
    0.5033    6.0931   12.1803 C   0  0  0  0  0  0  0  0  0  0  0  0
    1.3866    6.2315   11.1074 C   0  0  0  0  0  0  0  0  0  0  0  0
    1.1130    5.6456    9.8926 C   0  0  0  0  0  0  0  0  0  0  0  0
   -0.0733    4.9230    9.8040 C   0  0  0  0  0  0  0  0  0  0  0  0
    2.5167    6.9331   11.2300 F   0  0  0  0  0  0  0  0  0  0  0  0
  1  2  1  0
  2  3  1  0
  3  4  2  0
  4  5  1  0
  5  6  2  0
  6  7  1  0
  7  8  2  0
  7  9  1  0
  9 10  1  0
  9 11  1  0
  9 12  1  0
  5 13  1  0
 13 14  1  0
 13 15  1  0
 13 16  1  0
  2 17  1  0
 17 18  1  0
 18 19  1  0
 19 20  1  0
 20 21  1  0
 21 22  1  0
 22 23  1  0
 20 24  1  0
 24 25  1  0
 25 26  2  0
 26 27  1  0
 27 28  2  0
 27 29  1  0
 29 30  1  0
 19 31  1  0
 31 32  2  0
 32 33  1  0
 33 34  2  0
 34 35  1  0
 35 36  2  0
 34 37  1  0
  8  3  1  0
 23 18  1  0
 30 25  1  0
 36 31  1  0
M  END
$$$$
