
     RDKit          3D

 37 40  0  0  0  0  0  0  0  0999 V2000
    0.3689    3.6097    3.9620 C   0  0  0  0  0  0  0  0  0  0  0  0
   -0.7102    3.1284    4.9305 C   0  0  0  0  0  0  0  0  0  0  0  0
   -0.3877    1.7186    5.2426 C   0  0  0  0  0  0  0  0  0  0  0  0
    0.7799    1.3142    5.8553 C   0  0  0  0  0  0  0  0  0  0  0  0
    1.0393   -0.0178    6.1269 C   0  0  0  0  0  0  0  0  0  0  0  0
    0.1177   -0.9631    5.7813 C   0  0  0  0  0  0  0  0  0  0  0  0
   -1.0499   -0.6079    5.1740 C   0  0  0  0  0  0  0  0  0  0  0  0
   -1.2906    0.7327    4.9106 C   0  0  0  0  0  0  0  0  0  0  0  0
   -2.0551   -1.6262    4.7955 C   0  0  0  0  0  0  0  0  0  0  0  0
   -3.3187   -1.0606    4.8070 F   0  0  0  0  0  0  0  0  0  0  0  0
   -1.8185   -2.0710    3.4894 F   0  0  0  0  0  0  0  0  0  0  0  0
   -1.9956   -2.6772    5.6674 F   0  0  0  0  0  0  0  0  0  0  0  0
    2.2948   -0.4679    6.7874 C   0  0  0  0  0  0  0  0  0  0  0  0
    3.2127   -0.7696    5.8008 F   0  0  0  0  0  0  0  0  0  0  0  0
    2.8461    0.5712    7.5314 F   0  0  0  0  0  0  0  0  0  0  0  0
    2.1190   -1.6009    7.5417 F   0  0  0  0  0  0  0  0  0  0  0  0
   -0.7440    3.9486    6.0526 O   0  0  0  0  0  0  0  0  0  0  0  0
   -1.8328    3.7301    6.8711 C   0  0  0  0  0  0  0  0  0  0  0  0
   -1.6567    4.4000    8.1859 C   0  0  0  0  0  0  0  0  0  0  0  0
   -2.8606    4.3807    9.0015 N   0  0  0  0  0  0  0  0  0  0  0  0
   -4.0057    3.9290    8.2903 C   0  0  0  0  0  0  0  0  0  0  0  0
   -4.0139    4.5592    6.9168 C   0  0  0  0  0  0  0  0  0  0  0  0
   -2.9793    4.0544    6.1798 O   0  0  0  0  0  0  0  0  0  0  0  0
   -3.0451    5.6150    9.6909 C   0  0  0  0  0  0  0  0  0  0  0  0
   -2.2400    5.6733   10.9239 C   0  0  0  0  0  0  0  0  0  0  0  0
   -1.6301    6.7212   11.5029 N   0  0  0  0  0  0  0  0  0  0  0  0
   -0.9928    6.3539   12.6249 C   0  0  0  0  0  0  0  0  0  0  0  0
   -0.3228    7.0671   13.4158 O   0  0  0  0  0  0  0  0  0  0  0  0
   -1.2025    5.0327   12.7655 N   0  0  0  0  0  0  0  0  0  0  0  0
   -1.9461    4.6276   11.7511 N   0  0  0  0  0  0  0  0  0  0  0  0
   -0.6364    3.6366    8.9593 C   0  0  0  0  0  0  0  0  0  0  0  0
    0.6093    4.1464    9.2410 C   0  0  0  0  0  0  0  0  0  0  0  0
    1.4829    3.3664    9.9617 C   0  0  0  0  0  0  0  0  0  0  0  0
    1.1309    2.0891   10.4032 C   0  0  0  0  0  0  0  0  0  0  0  0
   -0.1129    1.5687   10.1271 C   0  0  0  0  0  0  0  0  0  0  0  0
   -0.9775    2.3786    9.3965 C   0  0  0  0  0  0  0  0  0  0  0  0
    1.9877    1.3402   11.1027 F   0  0  0  0  0  0  0  0  0  0  0  0
  1  2  1  0
  2  3  1  0
  3  4  2  0
  4  5  1  0
  5  6  2  0
  6  7  1  0
  7  8  2  0
  7  9  1  0
  9 10  1  0
  9 11  1  0
  9 12  1  0
  5 13  1  0
 13 14  1  0
 13 15  1  0
 13 16  1  0
  2 17  1  0
 17 18  1  0
 18 19  1  0
 19 20  1  0
 20 21  1  0
 21 22  1  0
 22 23  1  0
 20 24  1  0
 24 25  1  0
 25 26  2  0
 26 27  1  0
 27 28  2  0
 27 29  1  0
 29 30  1  0
 19 31  1  0
 31 32  2  0
 32 33  1  0
 33 34  2  0
 34 35  1  0
 35 36  2  0
 34 37  1  0
  8  3  1  0
 23 18  1  0
 30 25  1  0
 36 31  1  0
M  END
$$$$
