
     RDKit          3D

 37 40  0  0  0  0  0  0  0  0999 V2000
   -3.5867    4.2417    5.0460 C   0  0  0  0  0  0  0  0  0  0  0  0
   -3.0302    3.4945    6.2567 C   0  0  0  0  0  0  0  0  0  0  0  0
   -2.0904    2.4837    5.7236 C   0  0  0  0  0  0  0  0  0  0  0  0
   -0.9249    2.7942    5.0548 C   0  0  0  0  0  0  0  0  0  0  0  0
   -0.0758    1.8138    4.5721 C   0  0  0  0  0  0  0  0  0  0  0  0
   -0.3950    0.5003    4.7599 C   0  0  0  0  0  0  0  0  0  0  0  0
   -1.5372    0.1482    5.4154 C   0  0  0  0  0  0  0  0  0  0  0  0
   -2.3748    1.1464    5.8914 C   0  0  0  0  0  0  0  0  0  0  0  0
   -1.8915   -1.2737    5.6234 C   0  0  0  0  0  0  0  0  0  0  0  0
   -3.2682   -1.4190    5.6018 F   0  0  0  0  0  0  0  0  0  0  0  0
   -1.3821   -2.0527    4.5779 F   0  0  0  0  0  0  0  0  0  0  0  0
   -1.3859   -1.7033    6.8185 F   0  0  0  0  0  0  0  0  0  0  0  0
    1.1847    2.1349    3.8490 C   0  0  0  0  0  0  0  0  0  0  0  0
    1.9808    1.0065    3.8550 F   0  0  0  0  0  0  0  0  0  0  0  0
    0.9145    2.4168    2.5130 F   0  0  0  0  0  0  0  0  0  0  0  0
    1.8983    3.1411    4.4507 F   0  0  0  0  0  0  0  0  0  0  0  0
   -2.4358    4.3904    7.1382 O   0  0  0  0  0  0  0  0  0  0  0  0
   -2.9120    4.3016    8.4300 C   0  0  0  0  0  0  0  0  0  0  0  0
   -1.9194    4.8266    9.4033 C   0  0  0  0  0  0  0  0  0  0  0  0
   -2.4535    4.9537   10.7500 N   0  0  0  0  0  0  0  0  0  0  0  0
   -3.8612    4.7645   10.8090 C   0  0  0  0  0  0  0  0  0  0  0  0
   -4.5057    5.4912    9.6512 C   0  0  0  0  0  0  0  0  0  0  0  0
   -4.1645    4.8729    8.4810 O   0  0  0  0  0  0  0  0  0  0  0  0
   -1.9926    6.1440   11.3852 C   0  0  0  0  0  0  0  0  0  0  0  0
   -1.0969    5.8433   12.5164 C   0  0  0  0  0  0  0  0  0  0  0  0
   -1.3926    5.4271   13.7591 N   0  0  0  0  0  0  0  0  0  0  0  0
   -0.2826    5.2670   14.4954 C   0  0  0  0  0  0  0  0  0  0  0  0
   -0.1824    4.8920   15.6923 O   0  0  0  0  0  0  0  0  0  0  0  0
    0.7515    5.5908   13.6986 N   0  0  0  0  0  0  0  0  0  0  0  0
    0.2654    5.9343   12.5189 N   0  0  0  0  0  0  0  0  0  0  0  0
   -0.8068    3.8399    9.5048 C   0  0  0  0  0  0  0  0  0  0  0  0
    0.4830    4.1417    9.1358 C   0  0  0  0  0  0  0  0  0  0  0  0
    1.4418    3.1647    9.2663 C   0  0  0  0  0  0  0  0  0  0  0  0
    1.1314    1.8951    9.7584 C   0  0  0  0  0  0  0  0  0  0  0  0
   -0.1560    1.5818   10.1307 C   0  0  0  0  0  0  0  0  0  0  0  0
   -1.1067    2.5884    9.9887 C   0  0  0  0  0  0  0  0  0  0  0  0
    2.0711    0.9537    9.8809 F   0  0  0  0  0  0  0  0  0  0  0  0
  1  2  1  0
  2  3  1  0
  3  4  2  0
  4  5  1  0
  5  6  2  0
  6  7  1  0
  7  8  2  0
  7  9  1  0
  9 10  1  0
  9 11  1  0
  9 12  1  0
  5 13  1  0
 13 14  1  0
 13 15  1  0
 13 16  1  0
  2 17  1  0
 17 18  1  0
 18 19  1  0
 19 20  1  0
 20 21  1  0
 21 22  1  0
 22 23  1  0
 20 24  1  0
 24 25  1  0
 25 26  2  0
 26 27  1  0
 27 28  2  0
 27 29  1  0
 29 30  1  0
 19 31  1  0
 31 32  2  0
 32 33  1  0
 33 34  2  0
 34 35  1  0
 35 36  2  0
 34 37  1  0
  8  3  1  0
 23 18  1  0
 30 25  1  0
 36 31  1  0
M  END
$$$$
