
     RDKit          3D

 37 40  0  0  0  0  0  0  0  0999 V2000
   -3.7970    4.0173    5.0515 C   0  0  0  0  0  0  0  0  0  0  0  0
   -3.0541    3.4123    6.2415 C   0  0  0  0  0  0  0  0  0  0  0  0
   -2.1477    2.3841    5.6846 C   0  0  0  0  0  0  0  0  0  0  0  0
   -2.5187    1.0764    5.4517 C   0  0  0  0  0  0  0  0  0  0  0  0
   -1.6351    0.1478    4.9298 C   0  0  0  0  0  0  0  0  0  0  0  0
   -0.3588    0.5306    4.6349 C   0  0  0  0  0  0  0  0  0  0  0  0
    0.0505    1.8131    4.8491 C   0  0  0  0  0  0  0  0  0  0  0  0
   -0.8508    2.7284    5.3730 C   0  0  0  0  0  0  0  0  0  0  0  0
    1.4327    2.2372    4.5325 C   0  0  0  0  0  0  0  0  0  0  0  0
    1.8473    3.1933    5.4440 F   0  0  0  0  0  0  0  0  0  0  0  0
    2.3071    1.1508    4.6538 F   0  0  0  0  0  0  0  0  0  0  0  0
    1.4800    2.7384    3.2616 F   0  0  0  0  0  0  0  0  0  0  0  0
   -2.0223   -1.2662    4.6736 C   0  0  0  0  0  0  0  0  0  0  0  0
   -2.4656   -1.8105    5.8628 F   0  0  0  0  0  0  0  0  0  0  0  0
   -3.0990   -1.3182    3.7931 F   0  0  0  0  0  0  0  0  0  0  0  0
   -0.9694   -2.0331    4.2411 F   0  0  0  0  0  0  0  0  0  0  0  0
   -2.3905    4.4100    6.9466 O   0  0  0  0  0  0  0  0  0  0  0  0
   -2.5377    4.3184    8.3153 C   0  0  0  0  0  0  0  0  0  0  0  0
   -1.2784    4.6839    9.0144 C   0  0  0  0  0  0  0  0  0  0  0  0
   -1.4414    4.8107   10.4539 N   0  0  0  0  0  0  0  0  0  0  0  0
   -2.8026    4.7797   10.8632 C   0  0  0  0  0  0  0  0  0  0  0  0
   -3.6220    5.6254    9.9161 C   0  0  0  0  0  0  0  0  0  0  0  0
   -3.6597    5.0250    8.6887 O   0  0  0  0  0  0  0  0  0  0  0  0
   -0.6968    5.9118   10.9696 C   0  0  0  0  0  0  0  0  0  0  0  0
   -0.7365    5.9513   12.4424 C   0  0  0  0  0  0  0  0  0  0  0  0
   -1.0690    6.9594   13.2660 N   0  0  0  0  0  0  0  0  0  0  0  0
   -0.9757    6.5880   14.5517 C   0  0  0  0  0  0  0  0  0  0  0  0
   -1.2089    7.2687   15.5839 O   0  0  0  0  0  0  0  0  0  0  0  0
   -0.5718    5.3050   14.5479 N   0  0  0  0  0  0  0  0  0  0  0  0
   -0.4294    4.9260   13.2900 N   0  0  0  0  0  0  0  0  0  0  0  0
   -0.3030    3.5740    8.8178 C   0  0  0  0  0  0  0  0  0  0  0  0
   -0.5689    2.2811    9.2036 C   0  0  0  0  0  0  0  0  0  0  0  0
    0.3940    1.3252    8.9800 C   0  0  0  0  0  0  0  0  0  0  0  0
    1.6142    1.6415    8.3787 C   0  0  0  0  0  0  0  0  0  0  0  0
    1.8911    2.9319    7.9885 C   0  0  0  0  0  0  0  0  0  0  0  0
    0.8999    3.8796    8.2263 C   0  0  0  0  0  0  0  0  0  0  0  0
    2.5422    0.7046    8.1663 F   0  0  0  0  0  0  0  0  0  0  0  0
  1  2  1  0
  2  3  1  0
  3  4  2  0
  4  5  1  0
  5  6  2  0
  6  7  1  0
  7  8  2  0
  7  9  1  0
  9 10  1  0
  9 11  1  0
  9 12  1  0
  5 13  1  0
 13 14  1  0
 13 15  1  0
 13 16  1  0
  2 17  1  0
 17 18  1  0
 18 19  1  0
 19 20  1  0
 20 21  1  0
 21 22  1  0
 22 23  1  0
 20 24  1  0
 24 25  1  0
 25 26  2  0
 26 27  1  0
 27 28  2  0
 27 29  1  0
 29 30  1  0
 19 31  1  0
 31 32  2  0
 32 33  1  0
 33 34  2  0
 34 35  1  0
 35 36  2  0
 34 37  1  0
  8  3  1  0
 23 18  1  0
 30 25  1  0
 36 31  1  0
M  END
$$$$
