
     RDKit          3D

 37 40  0  0  0  0  0  0  0  0999 V2000
    0.6060    4.2560    6.5127 C   0  0  0  0  0  0  0  0  0  0  0  0
   -0.5011    3.2378    6.7801 C   0  0  0  0  0  0  0  0  0  0  0  0
   -0.1087    2.0024    6.0668 C   0  0  0  0  0  0  0  0  0  0  0  0
    0.2552    0.8318    6.6988 C   0  0  0  0  0  0  0  0  0  0  0  0
    0.6163   -0.3002    5.9893 C   0  0  0  0  0  0  0  0  0  0  0  0
    0.6143   -0.2639    4.6251 C   0  0  0  0  0  0  0  0  0  0  0  0
    0.2615    0.8721    3.9594 C   0  0  0  0  0  0  0  0  0  0  0  0
   -0.0971    1.9959    4.6894 C   0  0  0  0  0  0  0  0  0  0  0  0
    0.2566    0.9207    2.4801 C   0  0  0  0  0  0  0  0  0  0  0  0
    1.0650   -0.0848    1.9779 F   0  0  0  0  0  0  0  0  0  0  0  0
   -1.0359    0.6853    1.9969 F   0  0  0  0  0  0  0  0  0  0  0  0
    0.6999    2.1433    2.0589 F   0  0  0  0  0  0  0  0  0  0  0  0
    1.0110   -1.5695    6.6586 C   0  0  0  0  0  0  0  0  0  0  0  0
    1.8844   -2.2393    5.8246 F   0  0  0  0  0  0  0  0  0  0  0  0
    1.7157   -1.2980    7.8277 F   0  0  0  0  0  0  0  0  0  0  0  0
   -0.0563   -2.4022    6.8855 F   0  0  0  0  0  0  0  0  0  0  0  0
   -0.6623    3.0573    8.1492 O   0  0  0  0  0  0  0  0  0  0  0  0
   -1.7736    3.6889    8.6684 C   0  0  0  0  0  0  0  0  0  0  0  0
   -1.4414    4.4088    9.9252 C   0  0  0  0  0  0  0  0  0  0  0  0
   -2.5205    5.2629   10.3955 N   0  0  0  0  0  0  0  0  0  0  0  0
   -3.5705    5.4033    9.4474 C   0  0  0  0  0  0  0  0  0  0  0  0
   -2.9721    5.6011    8.0739 C   0  0  0  0  0  0  0  0  0  0  0  0
   -2.3561    4.4473    7.6769 O   0  0  0  0  0  0  0  0  0  0  0  0
   -2.0245    6.4961   10.9111 C   0  0  0  0  0  0  0  0  0  0  0  0
   -1.6576    6.3809   12.3338 C   0  0  0  0  0  0  0  0  0  0  0  0
   -0.5414    6.7773   12.9679 N   0  0  0  0  0  0  0  0  0  0  0  0
   -0.5962    6.4868   14.2765 C   0  0  0  0  0  0  0  0  0  0  0  0
    0.2643    6.7111   15.1667 O   0  0  0  0  0  0  0  0  0  0  0  0
   -1.7825    5.8874   14.4830 N   0  0  0  0  0  0  0  0  0  0  0  0
   -2.4148    5.8246   13.3244 N   0  0  0  0  0  0  0  0  0  0  0  0
   -1.2372    3.3940   10.9977 C   0  0  0  0  0  0  0  0  0  0  0  0
   -2.2536    2.5879   11.4540 C   0  0  0  0  0  0  0  0  0  0  0  0
   -1.9676    1.6807   12.4470 C   0  0  0  0  0  0  0  0  0  0  0  0
   -0.6852    1.5678   12.9886 C   0  0  0  0  0  0  0  0  0  0  0  0
    0.3396    2.3692   12.5397 C   0  0  0  0  0  0  0  0  0  0  0  0
    0.0232    3.2785   11.5345 C   0  0  0  0  0  0  0  0  0  0  0  0
   -0.4189    0.6827   13.9530 F   0  0  0  0  0  0  0  0  0  0  0  0
  1  2  1  0
  2  3  1  0
  3  4  2  0
  4  5  1  0
  5  6  2  0
  6  7  1  0
  7  8  2  0
  7  9  1  0
  9 10  1  0
  9 11  1  0
  9 12  1  0
  5 13  1  0
 13 14  1  0
 13 15  1  0
 13 16  1  0
  2 17  1  0
 17 18  1  0
 18 19  1  0
 19 20  1  0
 20 21  1  0
 21 22  1  0
 22 23  1  0
 20 24  1  0
 24 25  1  0
 25 26  2  0
 26 27  1  0
 27 28  2  0
 27 29  1  0
 29 30  1  0
 19 31  1  0
 31 32  2  0
 32 33  1  0
 33 34  2  0
 34 35  1  0
 35 36  2  0
 34 37  1  0
  8  3  1  0
 23 18  1  0
 30 25  1  0
 36 31  1  0
M  END
$$$$
