
     RDKit          3D

 37 40  0  0  0  0  0  0  0  0999 V2000
   -4.2891    2.7610    5.8964 C   0  0  0  0  0  0  0  0  0  0  0  0
   -3.4941    3.2341    7.1121 C   0  0  0  0  0  0  0  0  0  0  0  0
   -2.1111    2.7455    6.9183 C   0  0  0  0  0  0  0  0  0  0  0  0
   -1.6475    1.5385    7.3983 C   0  0  0  0  0  0  0  0  0  0  0  0
   -0.3435    1.1227    7.1934 C   0  0  0  0  0  0  0  0  0  0  0  0
    0.5132    1.9252    6.4973 C   0  0  0  0  0  0  0  0  0  0  0  0
    0.0972    3.1263    6.0050 C   0  0  0  0  0  0  0  0  0  0  0  0
   -1.2140    3.5245    6.2214 C   0  0  0  0  0  0  0  0  0  0  0  0
    1.0193    4.0033    5.2492 C   0  0  0  0  0  0  0  0  0  0  0  0
    1.2374    3.4742    3.9885 F   0  0  0  0  0  0  0  0  0  0  0  0
    0.4406    5.2650    5.0682 F   0  0  0  0  0  0  0  0  0  0  0  0
    2.2005    4.1213    5.9271 F   0  0  0  0  0  0  0  0  0  0  0  0
    0.1697   -0.1769    7.7057 C   0  0  0  0  0  0  0  0  0  0  0  0
   -0.7349   -0.6593    8.6309 F   0  0  0  0  0  0  0  0  0  0  0  0
    0.2167   -1.1144    6.6779 F   0  0  0  0  0  0  0  0  0  0  0  0
    1.3792   -0.0542    8.3427 F   0  0  0  0  0  0  0  0  0  0  0  0
   -3.5798    4.6168    7.2292 O   0  0  0  0  0  0  0  0  0  0  0  0
   -3.2966    5.0885    8.4944 C   0  0  0  0  0  0  0  0  0  0  0  0
   -2.1105    4.4015    9.0684 C   0  0  0  0  0  0  0  0  0  0  0  0
   -1.6430    5.0080   10.3047 N   0  0  0  0  0  0  0  0  0  0  0  0
   -2.2715    6.2520   10.5850 C   0  0  0  0  0  0  0  0  0  0  0  0
   -2.3542    7.0611    9.3113 C   0  0  0  0  0  0  0  0  0  0  0  0
   -3.2321    6.4639    8.4506 O   0  0  0  0  0  0  0  0  0  0  0  0
   -0.2189    5.0414   10.3650 C   0  0  0  0  0  0  0  0  0  0  0  0
    0.3156    3.9373   11.1819 C   0  0  0  0  0  0  0  0  0  0  0  0
   -0.0049    3.5596   12.4308 N   0  0  0  0  0  0  0  0  0  0  0  0
    0.7169    2.4971   12.8179 C   0  0  0  0  0  0  0  0  0  0  0  0
    0.6814    1.8821   13.9150 O   0  0  0  0  0  0  0  0  0  0  0  0
    1.5216    2.1882   11.7853 N   0  0  0  0  0  0  0  0  0  0  0  0
    1.2818    3.0472   10.8103 N   0  0  0  0  0  0  0  0  0  0  0  0
   -2.5126    3.0125    9.4303 C   0  0  0  0  0  0  0  0  0  0  0  0
   -3.8188    2.5857    9.3797 C   0  0  0  0  0  0  0  0  0  0  0  0
   -4.0915    1.2849    9.7326 C   0  0  0  0  0  0  0  0  0  0  0  0
   -3.0815    0.4078   10.1338 C   0  0  0  0  0  0  0  0  0  0  0  0
   -1.7709    0.8241   10.1883 C   0  0  0  0  0  0  0  0  0  0  0  0
   -1.5224    2.1448    9.8261 C   0  0  0  0  0  0  0  0  0  0  0  0
   -3.3582   -0.8538   10.4743 F   0  0  0  0  0  0  0  0  0  0  0  0
  1  2  1  0
  2  3  1  0
  3  4  2  0
  4  5  1  0
  5  6  2  0
  6  7  1  0
  7  8  2  0
  7  9  1  0
  9 10  1  0
  9 11  1  0
  9 12  1  0
  5 13  1  0
 13 14  1  0
 13 15  1  0
 13 16  1  0
  2 17  1  0
 17 18  1  0
 18 19  1  0
 19 20  1  0
 20 21  1  0
 21 22  1  0
 22 23  1  0
 20 24  1  0
 24 25  1  0
 25 26  2  0
 26 27  1  0
 27 28  2  0
 27 29  1  0
 29 30  1  0
 19 31  1  0
 31 32  2  0
 32 33  1  0
 33 34  2  0
 34 35  1  0
 35 36  2  0
 34 37  1  0
  8  3  1  0
 23 18  1  0
 30 25  1  0
 36 31  1  0
M  END
$$$$
