
     RDKit          3D

 37 40  0  0  0  0  0  0  0  0999 V2000
   -1.2648   -0.9312    7.9438 C   0  0  0  0  0  0  0  0  0  0  0  0
   -0.4288    0.3473    7.9597 C   0  0  0  0  0  0  0  0  0  0  0  0
   -0.1353    0.6680    6.5455 C   0  0  0  0  0  0  0  0  0  0  0  0
   -0.3561    1.9042    5.9753 C   0  0  0  0  0  0  0  0  0  0  0  0
   -0.0669    2.1581    4.6460 C   0  0  0  0  0  0  0  0  0  0  0  0
    0.4517    1.1611    3.8717 C   0  0  0  0  0  0  0  0  0  0  0  0
    0.6859   -0.0759    4.3942 C   0  0  0  0  0  0  0  0  0  0  0  0
    0.3891   -0.3097    5.7290 C   0  0  0  0  0  0  0  0  0  0  0  0
    1.2479   -1.1632    3.5620 C   0  0  0  0  0  0  0  0  0  0  0  0
    2.6292   -1.0708    3.5451 F   0  0  0  0  0  0  0  0  0  0  0  0
    0.9285   -2.4071    4.1188 F   0  0  0  0  0  0  0  0  0  0  0  0
    0.7491   -1.0750    2.2924 F   0  0  0  0  0  0  0  0  0  0  0  0
   -0.3001    3.4872    4.0182 C   0  0  0  0  0  0  0  0  0  0  0  0
   -0.4003    3.3039    2.6531 F   0  0  0  0  0  0  0  0  0  0  0  0
   -1.5219    4.0081    4.4344 F   0  0  0  0  0  0  0  0  0  0  0  0
    0.7322    4.3645    4.2377 F   0  0  0  0  0  0  0  0  0  0  0  0
   -1.1151    1.3575    8.6241 O   0  0  0  0  0  0  0  0  0  0  0  0
   -0.3127    2.1450    9.4237 C   0  0  0  0  0  0  0  0  0  0  0  0
   -1.1228    3.1187   10.2008 C   0  0  0  0  0  0  0  0  0  0  0  0
   -0.3516    3.8231   11.2127 N   0  0  0  0  0  0  0  0  0  0  0  0
    0.9490    3.2795   11.3975 C   0  0  0  0  0  0  0  0  0  0  0  0
    0.8565    1.7712   11.4086 C   0  0  0  0  0  0  0  0  0  0  0  0
    0.5162    1.3283   10.1611 O   0  0  0  0  0  0  0  0  0  0  0  0
   -1.0967    3.9887   12.4169 C   0  0  0  0  0  0  0  0  0  0  0  0
   -0.7917    5.2735   13.0713 C   0  0  0  0  0  0  0  0  0  0  0  0
   -0.4412    5.5279   14.3431 N   0  0  0  0  0  0  0  0  0  0  0  0
   -0.2492    6.8407   14.5414 C   0  0  0  0  0  0  0  0  0  0  0  0
    0.0837    7.4339   15.6000 O   0  0  0  0  0  0  0  0  0  0  0  0
   -0.4841    7.4414   13.3610 N   0  0  0  0  0  0  0  0  0  0  0  0
   -0.8075    6.5065   12.4850 N   0  0  0  0  0  0  0  0  0  0  0  0
   -1.6060    4.1702    9.2612 C   0  0  0  0  0  0  0  0  0  0  0  0
   -2.9012    4.2095    8.8008 C   0  0  0  0  0  0  0  0  0  0  0  0
   -3.2532    5.2192    7.9363 C   0  0  0  0  0  0  0  0  0  0  0  0
   -2.3330    6.1866    7.5266 C   0  0  0  0  0  0  0  0  0  0  0  0
   -1.0342    6.1571    7.9809 C   0  0  0  0  0  0  0  0  0  0  0  0
   -0.7044    5.1251    8.8546 C   0  0  0  0  0  0  0  0  0  0  0  0
   -2.6862    7.1630    6.6864 F   0  0  0  0  0  0  0  0  0  0  0  0
  1  2  1  0
  2  3  1  0
  3  4  2  0
  4  5  1  0
  5  6  2  0
  6  7  1  0
  7  8  2  0
  7  9  1  0
  9 10  1  0
  9 11  1  0
  9 12  1  0
  5 13  1  0
 13 14  1  0
 13 15  1  0
 13 16  1  0
  2 17  1  0
 17 18  1  0
 18 19  1  0
 19 20  1  0
 20 21  1  0
 21 22  1  0
 22 23  1  0
 20 24  1  0
 24 25  1  0
 25 26  2  0
 26 27  1  0
 27 28  2  0
 27 29  1  0
 29 30  1  0
 19 31  1  0
 31 32  2  0
 32 33  1  0
 33 34  2  0
 34 35  1  0
 35 36  2  0
 34 37  1  0
  8  3  1  0
 23 18  1  0
 30 25  1  0
 36 31  1  0
M  END
$$$$
