
     RDKit          3D

 37 40  0  0  0  0  0  0  0  0999 V2000
    0.1126    0.9373    8.4294 C   0  0  0  0  0  0  0  0  0  0  0  0
    0.7062    2.1427    7.7025 C   0  0  0  0  0  0  0  0  0  0  0  0
    0.0107    2.2242    6.3992 C   0  0  0  0  0  0  0  0  0  0  0  0
   -0.5611    3.3771    5.9032 C   0  0  0  0  0  0  0  0  0  0  0  0
   -1.2032    3.4057    4.6776 C   0  0  0  0  0  0  0  0  0  0  0  0
   -1.2763    2.2641    3.9336 C   0  0  0  0  0  0  0  0  0  0  0  0
   -0.7250    1.1022    4.3853 C   0  0  0  0  0  0  0  0  0  0  0  0
   -0.0857    1.0948    5.6165 C   0  0  0  0  0  0  0  0  0  0  0  0
   -0.7996   -0.1408    3.5853 C   0  0  0  0  0  0  0  0  0  0  0  0
    0.2224   -0.1562    2.6514 F   0  0  0  0  0  0  0  0  0  0  0  0
   -0.6140   -1.2550    4.4122 F   0  0  0  0  0  0  0  0  0  0  0  0
   -2.0145   -0.2149    2.9632 F   0  0  0  0  0  0  0  0  0  0  0  0
   -1.8243    4.6427    4.1307 C   0  0  0  0  0  0  0  0  0  0  0  0
   -3.1873    4.4366    4.0482 F   0  0  0  0  0  0  0  0  0  0  0  0
   -1.6410    5.7036    5.0129 F   0  0  0  0  0  0  0  0  0  0  0  0
   -1.3798    4.9442    2.8677 F   0  0  0  0  0  0  0  0  0  0  0  0
    0.5604    3.2869    8.4787 O   0  0  0  0  0  0  0  0  0  0  0  0
   -0.7139    3.4651    8.9764 C   0  0  0  0  0  0  0  0  0  0  0  0
   -0.6836    4.1673   10.2857 C   0  0  0  0  0  0  0  0  0  0  0  0
   -2.0026    4.5685   10.7483 N   0  0  0  0  0  0  0  0  0  0  0  0
   -3.0106    4.4073    9.7589 C   0  0  0  0  0  0  0  0  0  0  0  0
   -2.4789    4.8907    8.4294 C   0  0  0  0  0  0  0  0  0  0  0  0
   -1.4938    4.0457    8.0005 O   0  0  0  0  0  0  0  0  0  0  0  0
   -1.9742    5.8585   11.3547 C   0  0  0  0  0  0  0  0  0  0  0  0
   -1.5747    5.7834   12.7713 C   0  0  0  0  0  0  0  0  0  0  0  0
   -0.4419    6.1919   13.3672 N   0  0  0  0  0  0  0  0  0  0  0  0
   -0.4675    5.9407   14.6848 C   0  0  0  0  0  0  0  0  0  0  0  0
    0.4148    6.1864   15.5476 O   0  0  0  0  0  0  0  0  0  0  0  0
   -1.6517    5.3546   14.9366 N   0  0  0  0  0  0  0  0  0  0  0  0
   -2.3113    5.2612   13.7954 N   0  0  0  0  0  0  0  0  0  0  0  0
   -0.1732    3.2118   11.3096 C   0  0  0  0  0  0  0  0  0  0  0  0
    1.0070    3.4153   11.9854 C   0  0  0  0  0  0  0  0  0  0  0  0
    1.3950    2.4771   12.9127 C   0  0  0  0  0  0  0  0  0  0  0  0
    0.6235    1.3426   13.1736 C   0  0  0  0  0  0  0  0  0  0  0  0
   -0.5593    1.1286   12.5034 C   0  0  0  0  0  0  0  0  0  0  0  0
   -0.9287    2.0932   11.5705 C   0  0  0  0  0  0  0  0  0  0  0  0
    1.0103    0.4378   14.0769 F   0  0  0  0  0  0  0  0  0  0  0  0
  1  2  1  0
  2  3  1  0
  3  4  2  0
  4  5  1  0
  5  6  2  0
  6  7  1  0
  7  8  2  0
  7  9  1  0
  9 10  1  0
  9 11  1  0
  9 12  1  0
  5 13  1  0
 13 14  1  0
 13 15  1  0
 13 16  1  0
  2 17  1  0
 17 18  1  0
 18 19  1  0
 19 20  1  0
 20 21  1  0
 21 22  1  0
 22 23  1  0
 20 24  1  0
 24 25  1  0
 25 26  2  0
 26 27  1  0
 27 28  2  0
 27 29  1  0
 29 30  1  0
 19 31  1  0
 31 32  2  0
 32 33  1  0
 33 34  2  0
 34 35  1  0
 35 36  2  0
 34 37  1  0
  8  3  1  0
 23 18  1  0
 30 25  1  0
 36 31  1  0
M  END
$$$$
