
     RDKit          3D

 37 40  0  0  0  0  0  0  0  0999 V2000
    0.8501    1.6085    9.4288 C   0  0  0  0  0  0  0  0  0  0  0  0
   -0.2079    2.5845    8.9172 C   0  0  0  0  0  0  0  0  0  0  0  0
   -0.2403    2.4268    7.4464 C   0  0  0  0  0  0  0  0  0  0  0  0
   -0.9500    3.2523    6.5998 C   0  0  0  0  0  0  0  0  0  0  0  0
   -0.9517    3.0655    5.2285 C   0  0  0  0  0  0  0  0  0  0  0  0
   -0.2325    2.0371    4.6923 C   0  0  0  0  0  0  0  0  0  0  0  0
    0.4835    1.1969    5.4921 C   0  0  0  0  0  0  0  0  0  0  0  0
    0.4718    1.4014    6.8642 C   0  0  0  0  0  0  0  0  0  0  0  0
    1.2662    0.0789    4.9195 C   0  0  0  0  0  0  0  0  0  0  0  0
    1.1260   -1.0445    5.7165 F   0  0  0  0  0  0  0  0  0  0  0  0
    0.7706   -0.2542    3.6533 F   0  0  0  0  0  0  0  0  0  0  0  0
    2.5821    0.4378    4.8292 F   0  0  0  0  0  0  0  0  0  0  0  0
   -1.7130    3.9487    4.3036 C   0  0  0  0  0  0  0  0  0  0  0  0
   -3.0219    3.5095    4.2732 F   0  0  0  0  0  0  0  0  0  0  0  0
   -1.7472    5.2489    4.7992 F   0  0  0  0  0  0  0  0  0  0  0  0
   -1.2371    3.9033    3.0170 F   0  0  0  0  0  0  0  0  0  0  0  0
   -1.4301    2.3257    9.5273 O   0  0  0  0  0  0  0  0  0  0  0  0
   -2.0752    3.4556    9.9864 C   0  0  0  0  0  0  0  0  0  0  0  0
   -1.8272    3.6610   11.4371 C   0  0  0  0  0  0  0  0  0  0  0  0
   -2.3047    4.9466   11.9208 N   0  0  0  0  0  0  0  0  0  0  0  0
   -2.7021    5.8212   10.8728 C   0  0  0  0  0  0  0  0  0  0  0  0
   -1.6875    5.7453    9.7554 C   0  0  0  0  0  0  0  0  0  0  0  0
   -1.7535    4.5141    9.1655 O   0  0  0  0  0  0  0  0  0  0  0  0
   -1.3965    5.5236   12.8562 C   0  0  0  0  0  0  0  0  0  0  0  0
   -0.1925    4.6911   13.0276 C   0  0  0  0  0  0  0  0  0  0  0  0
    0.1296    3.8396   14.0158 N   0  0  0  0  0  0  0  0  0  0  0  0
    1.3254    3.2719   13.7981 C   0  0  0  0  0  0  0  0  0  0  0  0
    1.9367    2.4328   14.5092 O   0  0  0  0  0  0  0  0  0  0  0  0
    1.7794    3.7762   12.6367 N   0  0  0  0  0  0  0  0  0  0  0  0
    0.8740    4.6222   12.1779 N   0  0  0  0  0  0  0  0  0  0  0  0
   -2.6065    2.6357   12.1877 C   0  0  0  0  0  0  0  0  0  0  0  0
   -2.7803    1.3538   11.7215 C   0  0  0  0  0  0  0  0  0  0  0  0
   -3.5156    0.4784   12.4857 C   0  0  0  0  0  0  0  0  0  0  0  0
   -4.0776    0.8643   13.7046 C   0  0  0  0  0  0  0  0  0  0  0  0
   -3.9102    2.1445   14.1810 C   0  0  0  0  0  0  0  0  0  0  0  0
   -3.1621    3.0100   13.3883 C   0  0  0  0  0  0  0  0  0  0  0  0
   -4.7900    0.0053   14.4387 F   0  0  0  0  0  0  0  0  0  0  0  0
  1  2  1  0
  2  3  1  0
  3  4  2  0
  4  5  1  0
  5  6  2  0
  6  7  1  0
  7  8  2  0
  7  9  1  0
  9 10  1  0
  9 11  1  0
  9 12  1  0
  5 13  1  0
 13 14  1  0
 13 15  1  0
 13 16  1  0
  2 17  1  0
 17 18  1  0
 18 19  1  0
 19 20  1  0
 20 21  1  0
 21 22  1  0
 22 23  1  0
 20 24  1  0
 24 25  1  0
 25 26  2  0
 26 27  1  0
 27 28  2  0
 27 29  1  0
 29 30  1  0
 19 31  1  0
 31 32  2  0
 32 33  1  0
 33 34  2  0
 34 35  1  0
 35 36  2  0
 34 37  1  0
  8  3  1  0
 23 18  1  0
 30 25  1  0
 36 31  1  0
M  END
$$$$
