
     RDKit          3D

 37 40  0  0  0  0  0  0  0  0999 V2000
    0.6271   -0.8334    8.4425 C   0  0  0  0  0  0  0  0  0  0  0  0
    0.5239    0.5729    7.8548 C   0  0  0  0  0  0  0  0  0  0  0  0
    0.1986    0.4001    6.4218 C   0  0  0  0  0  0  0  0  0  0  0  0
    0.5975    1.2734    5.4318 C   0  0  0  0  0  0  0  0  0  0  0  0
    0.2683    1.0715    4.1028 C   0  0  0  0  0  0  0  0  0  0  0  0
   -0.4719   -0.0211    3.7553 C   0  0  0  0  0  0  0  0  0  0  0  0
   -0.8874   -0.9102    4.7014 C   0  0  0  0  0  0  0  0  0  0  0  0
   -0.5467   -0.6894    6.0280 C   0  0  0  0  0  0  0  0  0  0  0  0
   -1.6906   -2.0977    4.3338 C   0  0  0  0  0  0  0  0  0  0  0  0
   -2.6133   -1.7534    3.3607 F   0  0  0  0  0  0  0  0  0  0  0  0
   -0.8640   -3.0837    3.7824 F   0  0  0  0  0  0  0  0  0  0  0  0
   -2.3261   -2.5838    5.4422 F   0  0  0  0  0  0  0  0  0  0  0  0
    0.6921    2.0058    3.0247 C   0  0  0  0  0  0  0  0  0  0  0  0
   -0.2842    2.0032    2.0480 F   0  0  0  0  0  0  0  0  0  0  0  0
    0.7544    3.3076    3.5132 F   0  0  0  0  0  0  0  0  0  0  0  0
    1.8680    1.6260    2.4274 F   0  0  0  0  0  0  0  0  0  0  0  0
   -0.4254    1.3123    8.5512 O   0  0  0  0  0  0  0  0  0  0  0  0
    0.0746    2.4625    9.1259 C   0  0  0  0  0  0  0  0  0  0  0  0
   -0.9460    3.1196    9.9832 C   0  0  0  0  0  0  0  0  0  0  0  0
   -0.4063    4.2120   10.7770 N   0  0  0  0  0  0  0  0  0  0  0  0
    1.0133    4.2784   10.7372 C   0  0  0  0  0  0  0  0  0  0  0  0
    1.5764    2.8816   10.8624 C   0  0  0  0  0  0  0  0  0  0  0  0
    1.2736    2.1678    9.7368 O   0  0  0  0  0  0  0  0  0  0  0  0
   -0.9594    4.2267   12.0910 C   0  0  0  0  0  0  0  0  0  0  0  0
   -1.3983    5.5788   12.4798 C   0  0  0  0  0  0  0  0  0  0  0  0
   -0.6907    6.7167   12.5774 N   0  0  0  0  0  0  0  0  0  0  0  0
   -1.4664    7.7399   12.9663 C   0  0  0  0  0  0  0  0  0  0  0  0
   -1.1428    8.9404   13.1595 O   0  0  0  0  0  0  0  0  0  0  0  0
   -2.7053    7.2396   13.1214 N   0  0  0  0  0  0  0  0  0  0  0  0
   -2.6641    5.9512   12.8312 N   0  0  0  0  0  0  0  0  0  0  0  0
   -1.9677    3.7386    9.0917 C   0  0  0  0  0  0  0  0  0  0  0  0
   -3.2811    3.8912    9.4692 C   0  0  0  0  0  0  0  0  0  0  0  0
   -4.1501    4.4745    8.5773 C   0  0  0  0  0  0  0  0  0  0  0  0
   -3.7270    4.9060    7.3182 C   0  0  0  0  0  0  0  0  0  0  0  0
   -2.4150    4.7584    6.9297 C   0  0  0  0  0  0  0  0  0  0  0  0
   -1.5567    4.1652    7.8510 C   0  0  0  0  0  0  0  0  0  0  0  0
   -4.5801    5.4715    6.4599 F   0  0  0  0  0  0  0  0  0  0  0  0
  1  2  1  0
  2  3  1  0
  3  4  2  0
  4  5  1  0
  5  6  2  0
  6  7  1  0
  7  8  2  0
  7  9  1  0
  9 10  1  0
  9 11  1  0
  9 12  1  0
  5 13  1  0
 13 14  1  0
 13 15  1  0
 13 16  1  0
  2 17  1  0
 17 18  1  0
 18 19  1  0
 19 20  1  0
 20 21  1  0
 21 22  1  0
 22 23  1  0
 20 24  1  0
 24 25  1  0
 25 26  2  0
 26 27  1  0
 27 28  2  0
 27 29  1  0
 29 30  1  0
 19 31  1  0
 31 32  2  0
 32 33  1  0
 33 34  2  0
 34 35  1  0
 35 36  2  0
 34 37  1  0
  8  3  1  0
 23 18  1  0
 30 25  1  0
 36 31  1  0
M  END
$$$$
