
     RDKit          3D

 37 40  0  0  0  0  0  0  0  0999 V2000
   -0.0186    3.0027    3.8957 C   0  0  0  0  0  0  0  0  0  0  0  0
   -0.8767    2.6372    5.1056 C   0  0  0  0  0  0  0  0  0  0  0  0
   -0.6129    1.2082    5.3839 C   0  0  0  0  0  0  0  0  0  0  0  0
    0.6364    0.6978    5.6678 C   0  0  0  0  0  0  0  0  0  0  0  0
    0.8358   -0.6481    5.9210 C   0  0  0  0  0  0  0  0  0  0  0  0
   -0.2300   -1.4999    5.8905 C   0  0  0  0  0  0  0  0  0  0  0  0
   -1.4825   -1.0382    5.6142 C   0  0  0  0  0  0  0  0  0  0  0  0
   -1.6609    0.3144    5.3632 C   0  0  0  0  0  0  0  0  0  0  0  0
   -2.6442   -1.9546    5.5787 C   0  0  0  0  0  0  0  0  0  0  0  0
   -2.3701   -3.0842    6.3310 F   0  0  0  0  0  0  0  0  0  0  0  0
   -3.7590   -1.3381    6.1589 F   0  0  0  0  0  0  0  0  0  0  0  0
   -2.9186   -2.2992    4.2847 F   0  0  0  0  0  0  0  0  0  0  0  0
    2.1783   -1.2121    6.2286 C   0  0  0  0  0  0  0  0  0  0  0  0
    2.7525   -1.6218    5.0414 F   0  0  0  0  0  0  0  0  0  0  0  0
    3.0093   -0.2220    6.7447 F   0  0  0  0  0  0  0  0  0  0  0  0
    2.1157   -2.3086    7.0516 F   0  0  0  0  0  0  0  0  0  0  0  0
   -0.5742    3.4730    6.1747 O   0  0  0  0  0  0  0  0  0  0  0  0
   -1.6210    3.6547    7.0548 C   0  0  0  0  0  0  0  0  0  0  0  0
   -1.2044    4.4788    8.2190 C   0  0  0  0  0  0  0  0  0  0  0  0
   -2.3190    4.8775    9.0636 N   0  0  0  0  0  0  0  0  0  0  0  0
   -3.5850    4.5891    8.4847 C   0  0  0  0  0  0  0  0  0  0  0  0
   -3.5543    4.9615    7.0204 C   0  0  0  0  0  0  0  0  0  0  0  0
   -2.7148    4.1133    6.3540 O   0  0  0  0  0  0  0  0  0  0  0  0
   -2.1737    6.2195    9.5224 C   0  0  0  0  0  0  0  0  0  0  0  0
   -2.0989    6.2852   10.9928 C   0  0  0  0  0  0  0  0  0  0  0  0
   -3.0215    6.6873   11.8828 N   0  0  0  0  0  0  0  0  0  0  0  0
   -2.5589    6.5943   13.1386 C   0  0  0  0  0  0  0  0  0  0  0  0
   -3.1451    6.8823   14.2141 O   0  0  0  0  0  0  0  0  0  0  0  0
   -1.3040    6.1188   13.0467 N   0  0  0  0  0  0  0  0  0  0  0  0
   -1.0303    5.9347   11.7672 N   0  0  0  0  0  0  0  0  0  0  0  0
   -0.3247    3.6427    9.0845 C   0  0  0  0  0  0  0  0  0  0  0  0
   -0.7236    2.4255    9.5849 C   0  0  0  0  0  0  0  0  0  0  0  0
    0.1590    1.7267   10.3745 C   0  0  0  0  0  0  0  0  0  0  0  0
    1.4298    2.2249   10.6702 C   0  0  0  0  0  0  0  0  0  0  0  0
    1.8397    3.4417   10.1750 C   0  0  0  0  0  0  0  0  0  0  0  0
    0.9275    4.1282    9.3789 C   0  0  0  0  0  0  0  0  0  0  0  0
    2.2790    1.5371   11.4384 F   0  0  0  0  0  0  0  0  0  0  0  0
  1  2  1  0
  2  3  1  0
  3  4  2  0
  4  5  1  0
  5  6  2  0
  6  7  1  0
  7  8  2  0
  7  9  1  0
  9 10  1  0
  9 11  1  0
  9 12  1  0
  5 13  1  0
 13 14  1  0
 13 15  1  0
 13 16  1  0
  2 17  1  0
 17 18  1  0
 18 19  1  0
 19 20  1  0
 20 21  1  0
 21 22  1  0
 22 23  1  0
 20 24  1  0
 24 25  1  0
 25 26  2  0
 26 27  1  0
 27 28  2  0
 27 29  1  0
 29 30  1  0
 19 31  1  0
 31 32  2  0
 32 33  1  0
 33 34  2  0
 34 35  1  0
 35 36  2  0
 34 37  1  0
  8  3  1  0
 23 18  1  0
 30 25  1  0
 36 31  1  0
M  END
$$$$
