
     RDKit          3D

 37 40  0  0  0  0  0  0  0  0999 V2000
   -2.1680   -0.5500    8.3219 C   0  0  0  0  0  0  0  0  0  0  0  0
   -2.0617    0.9557    8.0868 C   0  0  0  0  0  0  0  0  0  0  0  0
   -1.0863    1.1356    6.9889 C   0  0  0  0  0  0  0  0  0  0  0  0
   -1.1190    2.1856    6.0954 C   0  0  0  0  0  0  0  0  0  0  0  0
   -0.1849    2.3125    5.0822 C   0  0  0  0  0  0  0  0  0  0  0  0
    0.7994    1.3753    4.9582 C   0  0  0  0  0  0  0  0  0  0  0  0
    0.8694    0.3211    5.8195 C   0  0  0  0  0  0  0  0  0  0  0  0
   -0.0767    0.2124    6.8283 C   0  0  0  0  0  0  0  0  0  0  0  0
    1.9332   -0.7001    5.6926 C   0  0  0  0  0  0  0  0  0  0  0  0
    2.6829   -0.4534    4.5551 F   0  0  0  0  0  0  0  0  0  0  0  0
    2.8071   -0.6201    6.7831 F   0  0  0  0  0  0  0  0  0  0  0  0
    1.3708   -1.9445    5.6318 F   0  0  0  0  0  0  0  0  0  0  0  0
   -0.2086    3.4403    4.1114 C   0  0  0  0  0  0  0  0  0  0  0  0
   -1.2757    3.2467    3.2566 F   0  0  0  0  0  0  0  0  0  0  0  0
   -0.4497    4.6404    4.7739 F   0  0  0  0  0  0  0  0  0  0  0  0
    0.9259    3.4994    3.3412 F   0  0  0  0  0  0  0  0  0  0  0  0
   -3.3161    1.4837    7.8029 O   0  0  0  0  0  0  0  0  0  0  0  0
   -3.5045    2.7637    8.2821 C   0  0  0  0  0  0  0  0  0  0  0  0
   -2.3465    3.2035    9.1030 C   0  0  0  0  0  0  0  0  0  0  0  0
   -2.3977    4.6143    9.4518 N   0  0  0  0  0  0  0  0  0  0  0  0
   -3.4155    5.3216    8.7554 C   0  0  0  0  0  0  0  0  0  0  0  0
   -3.4199    4.8833    7.3092 C   0  0  0  0  0  0  0  0  0  0  0  0
   -3.8422    3.5858    7.2296 O   0  0  0  0  0  0  0  0  0  0  0  0
   -1.1079    5.2177    9.3808 C   0  0  0  0  0  0  0  0  0  0  0  0
   -0.5631    5.4928   10.7223 C   0  0  0  0  0  0  0  0  0  0  0  0
    0.6484    5.2131   11.2314 N   0  0  0  0  0  0  0  0  0  0  0  0
    0.7506    5.6317   12.5019 C   0  0  0  0  0  0  0  0  0  0  0  0
    1.7329    5.5373   13.2824 O   0  0  0  0  0  0  0  0  0  0  0  0
   -0.4308    6.1950   12.8122 N   0  0  0  0  0  0  0  0  0  0  0  0
   -1.2135    6.1119   11.7508 N   0  0  0  0  0  0  0  0  0  0  0  0
   -2.3943    2.4683   10.3988 C   0  0  0  0  0  0  0  0  0  0  0  0
   -1.6170    2.8217   11.4768 C   0  0  0  0  0  0  0  0  0  0  0  0
   -1.7315    2.0826   12.6307 C   0  0  0  0  0  0  0  0  0  0  0  0
   -2.6083    0.9995   12.7226 C   0  0  0  0  0  0  0  0  0  0  0  0
   -3.3910    0.6368   11.6503 C   0  0  0  0  0  0  0  0  0  0  0  0
   -3.2557    1.4011   10.4950 C   0  0  0  0  0  0  0  0  0  0  0  0
   -2.7113    0.2887   13.8488 F   0  0  0  0  0  0  0  0  0  0  0  0
  1  2  1  0
  2  3  1  0
  3  4  2  0
  4  5  1  0
  5  6  2  0
  6  7  1  0
  7  8  2  0
  7  9  1  0
  9 10  1  0
  9 11  1  0
  9 12  1  0
  5 13  1  0
 13 14  1  0
 13 15  1  0
 13 16  1  0
  2 17  1  0
 17 18  1  0
 18 19  1  0
 19 20  1  0
 20 21  1  0
 21 22  1  0
 22 23  1  0
 20 24  1  0
 24 25  1  0
 25 26  2  0
 26 27  1  0
 27 28  2  0
 27 29  1  0
 29 30  1  0
 19 31  1  0
 31 32  2  0
 32 33  1  0
 33 34  2  0
 34 35  1  0
 35 36  2  0
 34 37  1  0
  8  3  1  0
 23 18  1  0
 30 25  1  0
 36 31  1  0
M  END
$$$$
