
     RDKit          3D

 37 40  0  0  0  0  0  0  0  0999 V2000
    0.2596    0.9939    5.3178 C   0  0  0  0  0  0  0  0  0  0  0  0
   -0.6421    1.6892    6.3363 C   0  0  0  0  0  0  0  0  0  0  0  0
    0.2264    2.6187    7.0918 C   0  0  0  0  0  0  0  0  0  0  0  0
    1.5508    2.3683    7.3838 C   0  0  0  0  0  0  0  0  0  0  0  0
    2.3251    3.2680    8.0953 C   0  0  0  0  0  0  0  0  0  0  0  0
    1.7684    4.4383    8.5230 C   0  0  0  0  0  0  0  0  0  0  0  0
    0.4631    4.7265    8.2566 C   0  0  0  0  0  0  0  0  0  0  0  0
   -0.2959    3.8112    7.5420 C   0  0  0  0  0  0  0  0  0  0  0  0
   -0.1492    5.9931    8.7167 C   0  0  0  0  0  0  0  0  0  0  0  0
    0.4194    6.3757    9.9197 F   0  0  0  0  0  0  0  0  0  0  0  0
    0.1144    7.0149    7.7970 F   0  0  0  0  0  0  0  0  0  0  0  0
   -1.4984    5.8263    8.8593 F   0  0  0  0  0  0  0  0  0  0  0  0
    3.7552    3.0104    8.4171 C   0  0  0  0  0  0  0  0  0  0  0  0
    3.8083    1.9799    9.3348 F   0  0  0  0  0  0  0  0  0  0  0  0
    4.4299    2.5624    7.2852 F   0  0  0  0  0  0  0  0  0  0  0  0
    4.3734    4.0958    8.9859 F   0  0  0  0  0  0  0  0  0  0  0  0
   -1.6955    2.3225    5.6866 O   0  0  0  0  0  0  0  0  0  0  0  0
   -2.7227    2.7006    6.5263 C   0  0  0  0  0  0  0  0  0  0  0  0
   -2.3052    2.6246    7.9504 C   0  0  0  0  0  0  0  0  0  0  0  0
   -3.2741    3.2136    8.8610 N   0  0  0  0  0  0  0  0  0  0  0  0
   -4.3014    3.9315    8.1899 C   0  0  0  0  0  0  0  0  0  0  0  0
   -3.6859    4.7528    7.0807 C   0  0  0  0  0  0  0  0  0  0  0  0
   -3.2124    3.9182    6.1074 O   0  0  0  0  0  0  0  0  0  0  0  0
   -2.6339    3.9417    9.9064 C   0  0  0  0  0  0  0  0  0  0  0  0
   -2.2760    3.0664   11.0368 C   0  0  0  0  0  0  0  0  0  0  0  0
   -1.1845    3.0779   11.8201 N   0  0  0  0  0  0  0  0  0  0  0  0
   -1.2390    2.1073   12.7446 C   0  0  0  0  0  0  0  0  0  0  0  0
   -0.3978    1.8256   13.6369 O   0  0  0  0  0  0  0  0  0  0  0  0
   -2.3998    1.4576   12.5449 N   0  0  0  0  0  0  0  0  0  0  0  0
   -3.0175    2.0299   11.5266 N   0  0  0  0  0  0  0  0  0  0  0  0
   -2.2217    1.1856    8.3302 C   0  0  0  0  0  0  0  0  0  0  0  0
   -1.7946    0.7734    9.5707 C   0  0  0  0  0  0  0  0  0  0  0  0
   -1.7519   -0.5767    9.8278 C   0  0  0  0  0  0  0  0  0  0  0  0
   -2.1283   -1.5175    8.8667 C   0  0  0  0  0  0  0  0  0  0  0  0
   -2.5573   -1.1166    7.6220 C   0  0  0  0  0  0  0  0  0  0  0  0
   -2.5910    0.2550    7.3879 C   0  0  0  0  0  0  0  0  0  0  0  0
   -2.0828   -2.8267    9.1277 F   0  0  0  0  0  0  0  0  0  0  0  0
  1  2  1  0
  2  3  1  0
  3  4  2  0
  4  5  1  0
  5  6  2  0
  6  7  1  0
  7  8  2  0
  7  9  1  0
  9 10  1  0
  9 11  1  0
  9 12  1  0
  5 13  1  0
 13 14  1  0
 13 15  1  0
 13 16  1  0
  2 17  1  0
 17 18  1  0
 18 19  1  0
 19 20  1  0
 20 21  1  0
 21 22  1  0
 22 23  1  0
 20 24  1  0
 24 25  1  0
 25 26  2  0
 26 27  1  0
 27 28  2  0
 27 29  1  0
 29 30  1  0
 19 31  1  0
 31 32  2  0
 32 33  1  0
 33 34  2  0
 34 35  1  0
 35 36  2  0
 34 37  1  0
  8  3  1  0
 23 18  1  0
 30 25  1  0
 36 31  1  0
M  END
$$$$
