
     RDKit          3D

 37 40  0  0  0  0  0  0  0  0999 V2000
   -4.0140    3.8843    6.3329 C   0  0  0  0  0  0  0  0  0  0  0  0
   -2.9152    3.5209    7.3302 C   0  0  0  0  0  0  0  0  0  0  0  0
   -1.9150    2.7338    6.5759 C   0  0  0  0  0  0  0  0  0  0  0  0
   -0.8440    3.2893    5.9077 C   0  0  0  0  0  0  0  0  0  0  0  0
    0.0670    2.5125    5.2135 C   0  0  0  0  0  0  0  0  0  0  0  0
   -0.0933    1.1576    5.1852 C   0  0  0  0  0  0  0  0  0  0  0  0
   -1.1376    0.5664    5.8317 C   0  0  0  0  0  0  0  0  0  0  0  0
   -2.0396    1.3630    6.5219 C   0  0  0  0  0  0  0  0  0  0  0  0
   -1.3195   -0.9023    5.8064 C   0  0  0  0  0  0  0  0  0  0  0  0
   -1.4257   -1.3813    7.1010 F   0  0  0  0  0  0  0  0  0  0  0  0
   -2.5136   -1.2262    5.1517 F   0  0  0  0  0  0  0  0  0  0  0  0
   -0.2608   -1.4856    5.1680 F   0  0  0  0  0  0  0  0  0  0  0  0
    1.2269    3.0989    4.4883 C   0  0  0  0  0  0  0  0  0  0  0  0
    2.2933    2.2305    4.6139 F   0  0  0  0  0  0  0  0  0  0  0  0
    0.9496    3.1850    3.1271 F   0  0  0  0  0  0  0  0  0  0  0  0
    1.6204    4.3065    5.0084 F   0  0  0  0  0  0  0  0  0  0  0  0
   -2.3918    4.6741    7.9040 O   0  0  0  0  0  0  0  0  0  0  0  0
   -2.5750    4.7508    9.2693 C   0  0  0  0  0  0  0  0  0  0  0  0
   -1.3348    5.2045    9.9508 C   0  0  0  0  0  0  0  0  0  0  0  0
   -1.5359    5.5066   11.3591 N   0  0  0  0  0  0  0  0  0  0  0  0
   -2.9073    5.5206   11.7334 C   0  0  0  0  0  0  0  0  0  0  0  0
   -3.7022    6.2401   10.6685 C   0  0  0  0  0  0  0  0  0  0  0  0
   -3.7070    5.4933    9.5237 O   0  0  0  0  0  0  0  0  0  0  0  0
   -0.8061    6.6656   11.7547 C   0  0  0  0  0  0  0  0  0  0  0  0
   -1.3073    7.2141   13.0275 C   0  0  0  0  0  0  0  0  0  0  0  0
   -1.8940    8.3958   13.2820 N   0  0  0  0  0  0  0  0  0  0  0  0
   -2.2052    8.5144   14.5815 C   0  0  0  0  0  0  0  0  0  0  0  0
   -2.7594    9.4782   15.1707 O   0  0  0  0  0  0  0  0  0  0  0  0
   -1.8052    7.3746   15.1733 N   0  0  0  0  0  0  0  0  0  0  0  0
   -1.2700    6.5999   14.2463 N   0  0  0  0  0  0  0  0  0  0  0  0
   -0.3537    4.0828    9.9176 C   0  0  0  0  0  0  0  0  0  0  0  0
    1.0014    4.2908    9.8107 C   0  0  0  0  0  0  0  0  0  0  0  0
    1.8277    3.1919    9.7884 C   0  0  0  0  0  0  0  0  0  0  0  0
    1.3213    1.8930    9.8711 C   0  0  0  0  0  0  0  0  0  0  0  0
   -0.0330    1.6729    9.9784 C   0  0  0  0  0  0  0  0  0  0  0  0
   -0.8467    2.8019    9.9987 C   0  0  0  0  0  0  0  0  0  0  0  0
    2.1336    0.8329    9.8485 F   0  0  0  0  0  0  0  0  0  0  0  0
  1  2  1  0
  2  3  1  0
  3  4  2  0
  4  5  1  0
  5  6  2  0
  6  7  1  0
  7  8  2  0
  7  9  1  0
  9 10  1  0
  9 11  1  0
  9 12  1  0
  5 13  1  0
 13 14  1  0
 13 15  1  0
 13 16  1  0
  2 17  1  0
 17 18  1  0
 18 19  1  0
 19 20  1  0
 20 21  1  0
 21 22  1  0
 22 23  1  0
 20 24  1  0
 24 25  1  0
 25 26  2  0
 26 27  1  0
 27 28  2  0
 27 29  1  0
 29 30  1  0
 19 31  1  0
 31 32  2  0
 32 33  1  0
 33 34  2  0
 34 35  1  0
 35 36  2  0
 34 37  1  0
  8  3  1  0
 23 18  1  0
 30 25  1  0
 36 31  1  0
M  END
$$$$
