
     RDKit          3D

 37 40  0  0  0  0  0  0  0  0999 V2000
    0.6838    4.0510    3.7879 C   0  0  0  0  0  0  0  0  0  0  0  0
   -0.4701    3.4266    4.5704 C   0  0  0  0  0  0  0  0  0  0  0  0
   -0.3851    1.9675    4.3402 C   0  0  0  0  0  0  0  0  0  0  0  0
   -0.7018    1.3578    3.1444 C   0  0  0  0  0  0  0  0  0  0  0  0
   -0.6079   -0.0125    2.9753 C   0  0  0  0  0  0  0  0  0  0  0  0
   -0.1908   -0.7884    4.0175 C   0  0  0  0  0  0  0  0  0  0  0  0
    0.1325   -0.2276    5.2172 C   0  0  0  0  0  0  0  0  0  0  0  0
    0.0316    1.1480    5.3659 C   0  0  0  0  0  0  0  0  0  0  0  0
    0.5857   -1.0612    6.3531 C   0  0  0  0  0  0  0  0  0  0  0  0
    1.5198   -0.3636    7.0998 F   0  0  0  0  0  0  0  0  0  0  0  0
   -0.4912   -1.3396    7.2031 F   0  0  0  0  0  0  0  0  0  0  0  0
    1.1254   -2.2255    5.8823 F   0  0  0  0  0  0  0  0  0  0  0  0
   -0.9465   -0.6832    1.6905 C   0  0  0  0  0  0  0  0  0  0  0  0
   -1.3496    0.2872    0.7946 F   0  0  0  0  0  0  0  0  0  0  0  0
    0.1881   -1.2751    1.1432 F   0  0  0  0  0  0  0  0  0  0  0  0
   -1.9803   -1.5772    1.8167 F   0  0  0  0  0  0  0  0  0  0  0  0
   -0.3826    3.7798    5.9123 O   0  0  0  0  0  0  0  0  0  0  0  0
   -1.5123    3.4770    6.6441 C   0  0  0  0  0  0  0  0  0  0  0  0
   -1.4083    4.0018    8.0304 C   0  0  0  0  0  0  0  0  0  0  0  0
   -2.6535    3.8976    8.7745 N   0  0  0  0  0  0  0  0  0  0  0  0
   -3.7578    3.5269    7.9595 C   0  0  0  0  0  0  0  0  0  0  0  0
   -3.6958    4.3007    6.6628 C   0  0  0  0  0  0  0  0  0  0  0  0
   -2.6220    3.8756    5.9317 O   0  0  0  0  0  0  0  0  0  0  0  0
   -2.8787    5.0513    9.5814 C   0  0  0  0  0  0  0  0  0  0  0  0
   -1.6754    5.4203   10.3483 C   0  0  0  0  0  0  0  0  0  0  0  0
   -1.1545    4.8586   11.4521 N   0  0  0  0  0  0  0  0  0  0  0  0
   -0.0416    5.4972   11.8437 C   0  0  0  0  0  0  0  0  0  0  0  0
    0.7010    5.2473   12.8282 O   0  0  0  0  0  0  0  0  0  0  0  0
    0.1529    6.4956   10.9636 N   0  0  0  0  0  0  0  0  0  0  0  0
   -0.8214    6.4492   10.0723 N   0  0  0  0  0  0  0  0  0  0  0  0
   -0.4274    3.1580    8.7705 C   0  0  0  0  0  0  0  0  0  0  0  0
    0.9239    3.4127    8.7558 C   0  0  0  0  0  0  0  0  0  0  0  0
    1.7504    2.5777    9.4703 C   0  0  0  0  0  0  0  0  0  0  0  0
    1.2478    1.4958   10.1966 C   0  0  0  0  0  0  0  0  0  0  0  0
   -0.1026    1.2314   10.2184 C   0  0  0  0  0  0  0  0  0  0  0  0
   -0.9165    2.0916    9.4871 C   0  0  0  0  0  0  0  0  0  0  0  0
    2.0602    0.6912   10.8871 F   0  0  0  0  0  0  0  0  0  0  0  0
  1  2  1  0
  2  3  1  0
  3  4  2  0
  4  5  1  0
  5  6  2  0
  6  7  1  0
  7  8  2  0
  7  9  1  0
  9 10  1  0
  9 11  1  0
  9 12  1  0
  5 13  1  0
 13 14  1  0
 13 15  1  0
 13 16  1  0
  2 17  1  0
 17 18  1  0
 18 19  1  0
 19 20  1  0
 20 21  1  0
 21 22  1  0
 22 23  1  0
 20 24  1  0
 24 25  1  0
 25 26  2  0
 26 27  1  0
 27 28  2  0
 27 29  1  0
 29 30  1  0
 19 31  1  0
 31 32  2  0
 32 33  1  0
 33 34  2  0
 34 35  1  0
 35 36  2  0
 34 37  1  0
  8  3  1  0
 23 18  1  0
 30 25  1  0
 36 31  1  0
M  END
$$$$
