
     RDKit          3D

 37 40  0  0  0  0  0  0  0  0999 V2000
   -0.5678    5.0600    6.2658 C   0  0  0  0  0  0  0  0  0  0  0  0
   -1.0845    4.0019    7.2391 C   0  0  0  0  0  0  0  0  0  0  0  0
   -0.7133    2.6913    6.6615 C   0  0  0  0  0  0  0  0  0  0  0  0
   -0.5686    1.5374    7.4027 C   0  0  0  0  0  0  0  0  0  0  0  0
   -0.2185    0.3326    6.8186 C   0  0  0  0  0  0  0  0  0  0  0  0
   -0.0090    0.2780    5.4712 C   0  0  0  0  0  0  0  0  0  0  0  0
   -0.1412    1.3944    4.7003 C   0  0  0  0  0  0  0  0  0  0  0  0
   -0.4928    2.5922    5.3054 C   0  0  0  0  0  0  0  0  0  0  0  0
    0.0842    1.3447    3.2383 C   0  0  0  0  0  0  0  0  0  0  0  0
    1.3653    1.7828    2.9490 F   0  0  0  0  0  0  0  0  0  0  0  0
   -0.0083    0.0240    2.7836 F   0  0  0  0  0  0  0  0  0  0  0  0
   -0.8410    2.1256    2.6038 F   0  0  0  0  0  0  0  0  0  0  0  0
   -0.0590   -0.9199    7.6066 C   0  0  0  0  0  0  0  0  0  0  0  0
    0.7500   -1.7776    6.8876 F   0  0  0  0  0  0  0  0  0  0  0  0
    0.6101   -0.6567    8.7983 F   0  0  0  0  0  0  0  0  0  0  0  0
   -1.2509   -1.5660    7.8203 F   0  0  0  0  0  0  0  0  0  0  0  0
   -0.5521    4.2181    8.5051 O   0  0  0  0  0  0  0  0  0  0  0  0
   -1.4709    4.0902    9.5263 C   0  0  0  0  0  0  0  0  0  0  0  0
   -0.9795    4.7343   10.7720 C   0  0  0  0  0  0  0  0  0  0  0  0
   -1.9939    4.8149   11.8109 N   0  0  0  0  0  0  0  0  0  0  0  0
   -3.2924    4.4687   11.3468 C   0  0  0  0  0  0  0  0  0  0  0  0
   -3.5193    5.1055    9.9952 C   0  0  0  0  0  0  0  0  0  0  0  0
   -2.6998    4.5170    9.0730 O   0  0  0  0  0  0  0  0  0  0  0  0
   -1.9302    6.0563   12.5090 C   0  0  0  0  0  0  0  0  0  0  0  0
   -2.7086    6.0160   13.7598 C   0  0  0  0  0  0  0  0  0  0  0  0
   -3.6479    6.8623   14.2147 N   0  0  0  0  0  0  0  0  0  0  0  0
   -4.1198    6.4694   15.4074 C   0  0  0  0  0  0  0  0  0  0  0  0
   -4.9991    7.0165   16.1221 O   0  0  0  0  0  0  0  0  0  0  0  0
   -3.4621    5.3392   15.7225 N   0  0  0  0  0  0  0  0  0  0  0  0
   -2.6209    5.0694   14.7398 N   0  0  0  0  0  0  0  0  0  0  0  0
    0.1045    3.8805   11.3358 C   0  0  0  0  0  0  0  0  0  0  0  0
   -0.0983    2.5664   11.6865 C   0  0  0  0  0  0  0  0  0  0  0  0
    0.9640    1.8591   12.1986 C   0  0  0  0  0  0  0  0  0  0  0  0
    2.2213    2.4439   12.3646 C   0  0  0  0  0  0  0  0  0  0  0  0
    2.4358    3.7581   12.0171 C   0  0  0  0  0  0  0  0  0  0  0  0
    1.3444    4.4510   11.5015 C   0  0  0  0  0  0  0  0  0  0  0  0
    3.2461    1.7470   12.8630 F   0  0  0  0  0  0  0  0  0  0  0  0
  1  2  1  0
  2  3  1  0
  3  4  2  0
  4  5  1  0
  5  6  2  0
  6  7  1  0
  7  8  2  0
  7  9  1  0
  9 10  1  0
  9 11  1  0
  9 12  1  0
  5 13  1  0
 13 14  1  0
 13 15  1  0
 13 16  1  0
  2 17  1  0
 17 18  1  0
 18 19  1  0
 19 20  1  0
 20 21  1  0
 21 22  1  0
 22 23  1  0
 20 24  1  0
 24 25  1  0
 25 26  2  0
 26 27  1  0
 27 28  2  0
 27 29  1  0
 29 30  1  0
 19 31  1  0
 31 32  2  0
 32 33  1  0
 33 34  2  0
 34 35  1  0
 35 36  2  0
 34 37  1  0
  8  3  1  0
 23 18  1  0
 30 25  1  0
 36 31  1  0
M  END
$$$$
