
     RDKit          3D

 37 40  0  0  0  0  0  0  0  0999 V2000
    0.5531    3.8746    4.3995 C   0  0  0  0  0  0  0  0  0  0  0  0
   -0.6269    3.3884    5.2392 C   0  0  0  0  0  0  0  0  0  0  0  0
   -0.4623    1.9244    5.3762 C   0  0  0  0  0  0  0  0  0  0  0  0
    0.1010    1.3134    6.4768 C   0  0  0  0  0  0  0  0  0  0  0  0
    0.2355   -0.0615    6.5605 C   0  0  0  0  0  0  0  0  0  0  0  0
   -0.1997   -0.8406    5.5281 C   0  0  0  0  0  0  0  0  0  0  0  0
   -0.7627   -0.2786    4.4211 C   0  0  0  0  0  0  0  0  0  0  0  0
   -0.8883    1.1014    4.3570 C   0  0  0  0  0  0  0  0  0  0  0  0
   -1.2374   -1.1157    3.2965 C   0  0  0  0  0  0  0  0  0  0  0  0
   -0.4906   -0.8413    2.1635 F   0  0  0  0  0  0  0  0  0  0  0  0
   -1.0465   -2.4703    3.5933 F   0  0  0  0  0  0  0  0  0  0  0  0
   -2.5617   -0.8676    3.0658 F   0  0  0  0  0  0  0  0  0  0  0  0
    0.8414   -0.7336    7.7421 C   0  0  0  0  0  0  0  0  0  0  0  0
   -0.1820   -1.2528    8.5104 F   0  0  0  0  0  0  0  0  0  0  0  0
    1.6146   -1.8171    7.3353 F   0  0  0  0  0  0  0  0  0  0  0  0
    1.5503    0.1317    8.5373 F   0  0  0  0  0  0  0  0  0  0  0  0
   -0.6529    4.0575    6.4576 O   0  0  0  0  0  0  0  0  0  0  0  0
   -1.6149    3.5916    7.3299 C   0  0  0  0  0  0  0  0  0  0  0  0
   -1.5000    4.2525    8.6558 C   0  0  0  0  0  0  0  0  0  0  0  0
   -2.6166    3.9565    9.5392 N   0  0  0  0  0  0  0  0  0  0  0  0
   -3.6834    3.2869    8.8801 C   0  0  0  0  0  0  0  0  0  0  0  0
   -3.9146    3.9328    7.5336 C   0  0  0  0  0  0  0  0  0  0  0  0
   -2.8466    3.6788    6.7192 O   0  0  0  0  0  0  0  0  0  0  0  0
   -3.0137    5.1061   10.2833 C   0  0  0  0  0  0  0  0  0  0  0  0
   -2.0325    5.4398   11.3311 C   0  0  0  0  0  0  0  0  0  0  0  0
   -1.5875    4.6977   12.3590 N   0  0  0  0  0  0  0  0  0  0  0  0
   -0.6883    5.3716   13.0918 C   0  0  0  0  0  0  0  0  0  0  0  0
   -0.0694    4.9905   14.1189 O   0  0  0  0  0  0  0  0  0  0  0  0
   -0.5560    6.5791   12.5142 N   0  0  0  0  0  0  0  0  0  0  0  0
   -1.3576    6.6191   11.4646 N   0  0  0  0  0  0  0  0  0  0  0  0
   -0.2927    3.7075    9.3395 C   0  0  0  0  0  0  0  0  0  0  0  0
    0.9430    4.3028    9.2406 C   0  0  0  0  0  0  0  0  0  0  0  0
    1.9976    3.7257    9.9082 C   0  0  0  0  0  0  0  0  0  0  0  0
    1.8358    2.5667   10.6704 C   0  0  0  0  0  0  0  0  0  0  0  0
    0.6039    1.9624   10.7764 C   0  0  0  0  0  0  0  0  0  0  0  0
   -0.4461    2.5666   10.0912 C   0  0  0  0  0  0  0  0  0  0  0  0
    2.8676    2.0149   11.3147 F   0  0  0  0  0  0  0  0  0  0  0  0
  1  2  1  0
  2  3  1  0
  3  4  2  0
  4  5  1  0
  5  6  2  0
  6  7  1  0
  7  8  2  0
  7  9  1  0
  9 10  1  0
  9 11  1  0
  9 12  1  0
  5 13  1  0
 13 14  1  0
 13 15  1  0
 13 16  1  0
  2 17  1  0
 17 18  1  0
 18 19  1  0
 19 20  1  0
 20 21  1  0
 21 22  1  0
 22 23  1  0
 20 24  1  0
 24 25  1  0
 25 26  2  0
 26 27  1  0
 27 28  2  0
 27 29  1  0
 29 30  1  0
 19 31  1  0
 31 32  2  0
 32 33  1  0
 33 34  2  0
 34 35  1  0
 35 36  2  0
 34 37  1  0
  8  3  1  0
 23 18  1  0
 30 25  1  0
 36 31  1  0
M  END
$$$$
