
     RDKit          3D

 37 40  0  0  0  0  0  0  0  0999 V2000
    1.8467    3.8648    8.0984 C   0  0  0  0  0  0  0  0  0  0  0  0
    0.4695    3.4510    8.6142 C   0  0  0  0  0  0  0  0  0  0  0  0
    0.0617    4.4899    9.5854 C   0  0  0  0  0  0  0  0  0  0  0  0
    0.7333    4.7493   10.7617 C   0  0  0  0  0  0  0  0  0  0  0  0
    0.3137    5.7318   11.6415 C   0  0  0  0  0  0  0  0  0  0  0  0
   -0.7954    6.4685   11.3426 C   0  0  0  0  0  0  0  0  0  0  0  0
   -1.4896    6.2457   10.1908 C   0  0  0  0  0  0  0  0  0  0  0  0
   -1.0524    5.2562    9.3223 C   0  0  0  0  0  0  0  0  0  0  0  0
   -2.6937    7.0397    9.8585 C   0  0  0  0  0  0  0  0  0  0  0  0
   -3.8022    6.2111    9.8193 F   0  0  0  0  0  0  0  0  0  0  0  0
   -2.9306    7.9920   10.8568 F   0  0  0  0  0  0  0  0  0  0  0  0
   -2.5181    7.6579    8.6520 F   0  0  0  0  0  0  0  0  0  0  0  0
    1.0290    6.0220   12.9140 C   0  0  0  0  0  0  0  0  0  0  0  0
    0.1396    5.8433   13.9551 F   0  0  0  0  0  0  0  0  0  0  0  0
    2.0535    5.1006   13.1109 F   0  0  0  0  0  0  0  0  0  0  0  0
    1.4832    7.3154   12.9826 F   0  0  0  0  0  0  0  0  0  0  0  0
   -0.4155    3.3109    7.5512 O   0  0  0  0  0  0  0  0  0  0  0  0
   -1.3885    2.3549    7.7572 C   0  0  0  0  0  0  0  0  0  0  0  0
   -0.7890    1.0021    7.8943 C   0  0  0  0  0  0  0  0  0  0  0  0
   -1.7460   -0.0050    8.3242 N   0  0  0  0  0  0  0  0  0  0  0  0
   -2.9885    0.5499    8.7356 C   0  0  0  0  0  0  0  0  0  0  0  0
   -2.7263    1.7757    9.5797 C   0  0  0  0  0  0  0  0  0  0  0  0
   -2.1975    2.7622    8.7952 O   0  0  0  0  0  0  0  0  0  0  0  0
   -1.1670   -0.9106    9.2609 C   0  0  0  0  0  0  0  0  0  0  0  0
   -2.0746   -1.1755   10.3914 C   0  0  0  0  0  0  0  0  0  0  0  0
   -3.2057   -1.8993   10.4336 N   0  0  0  0  0  0  0  0  0  0  0  0
   -3.7413   -1.8935   11.6636 C   0  0  0  0  0  0  0  0  0  0  0  0
   -4.7904   -2.4603   12.0652 O   0  0  0  0  0  0  0  0  0  0  0  0
   -2.9276   -1.1437   12.4285 N   0  0  0  0  0  0  0  0  0  0  0  0
   -1.9341   -0.7160   11.6694 N   0  0  0  0  0  0  0  0  0  0  0  0
   -0.3249    0.5648    6.5470 C   0  0  0  0  0  0  0  0  0  0  0  0
    0.6635   -0.3761    6.3766 C   0  0  0  0  0  0  0  0  0  0  0  0
    1.0237   -0.7151    5.0936 C   0  0  0  0  0  0  0  0  0  0  0  0
    0.4127   -0.1297    3.9825 C   0  0  0  0  0  0  0  0  0  0  0  0
   -0.5775    0.8129    4.1411 C   0  0  0  0  0  0  0  0  0  0  0  0
   -0.9228    1.1377    5.4497 C   0  0  0  0  0  0  0  0  0  0  0  0
    0.7707   -0.4669    2.7406 F   0  0  0  0  0  0  0  0  0  0  0  0
  1  2  1  0
  2  3  1  0
  3  4  2  0
  4  5  1  0
  5  6  2  0
  6  7  1  0
  7  8  2  0
  7  9  1  0
  9 10  1  0
  9 11  1  0
  9 12  1  0
  5 13  1  0
 13 14  1  0
 13 15  1  0
 13 16  1  0
  2 17  1  0
 17 18  1  0
 18 19  1  0
 19 20  1  0
 20 21  1  0
 21 22  1  0
 22 23  1  0
 20 24  1  0
 24 25  1  0
 25 26  2  0
 26 27  1  0
 27 28  2  0
 27 29  1  0
 29 30  1  0
 19 31  1  0
 31 32  2  0
 32 33  1  0
 33 34  2  0
 34 35  1  0
 35 36  2  0
 34 37  1  0
  8  3  1  0
 23 18  1  0
 30 25  1  0
 36 31  1  0
M  END
$$$$
