
     RDKit          3D

 37 40  0  0  0  0  0  0  0  0999 V2000
    0.0522    4.0495    4.9221 C   0  0  0  0  0  0  0  0  0  0  0  0
   -1.3538    3.4956    5.1459 C   0  0  0  0  0  0  0  0  0  0  0  0
   -1.2122    2.0249    5.2231 C   0  0  0  0  0  0  0  0  0  0  0  0
   -0.6335    1.2550    4.2360 C   0  0  0  0  0  0  0  0  0  0  0  0
   -0.5236   -0.1197    4.3514 C   0  0  0  0  0  0  0  0  0  0  0  0
   -0.9994   -0.7374    5.4714 C   0  0  0  0  0  0  0  0  0  0  0  0
   -1.5789   -0.0153    6.4718 C   0  0  0  0  0  0  0  0  0  0  0  0
   -1.6793    1.3618    6.3364 C   0  0  0  0  0  0  0  0  0  0  0  0
   -2.0979   -0.6766    7.6899 C   0  0  0  0  0  0  0  0  0  0  0  0
   -2.5512   -1.9461    7.3739 F   0  0  0  0  0  0  0  0  0  0  0  0
   -1.0693   -0.8316    8.6266 F   0  0  0  0  0  0  0  0  0  0  0  0
   -3.1100    0.0714    8.2234 F   0  0  0  0  0  0  0  0  0  0  0  0
    0.0986   -0.9623    3.2940 C   0  0  0  0  0  0  0  0  0  0  0  0
    1.0698   -0.2097    2.6636 F   0  0  0  0  0  0  0  0  0  0  0  0
    0.7544   -2.0477    3.8676 F   0  0  0  0  0  0  0  0  0  0  0  0
   -0.8000   -1.3557    2.3340 F   0  0  0  0  0  0  0  0  0  0  0  0
   -1.9113    4.0574    6.2889 O   0  0  0  0  0  0  0  0  0  0  0  0
   -2.3859    3.1292    7.1926 C   0  0  0  0  0  0  0  0  0  0  0  0
   -1.8844    3.4113    8.5627 C   0  0  0  0  0  0  0  0  0  0  0  0
   -2.5228    2.5951    9.5830 N   0  0  0  0  0  0  0  0  0  0  0  0
   -3.6395    1.8653    9.0916 C   0  0  0  0  0  0  0  0  0  0  0  0
   -4.4610    2.7639    8.1963 C   0  0  0  0  0  0  0  0  0  0  0  0
   -3.7542    3.0404    7.0595 O   0  0  0  0  0  0  0  0  0  0  0  0
   -2.7854    3.3469   10.7656 C   0  0  0  0  0  0  0  0  0  0  0  0
   -1.7014    4.3034   11.0523 C   0  0  0  0  0  0  0  0  0  0  0  0
   -1.6635    5.6354   10.8810 N   0  0  0  0  0  0  0  0  0  0  0  0
   -0.4830    6.1421   11.2678 C   0  0  0  0  0  0  0  0  0  0  0  0
   -0.0996    7.3404   11.2491 O   0  0  0  0  0  0  0  0  0  0  0  0
    0.2537    5.1023   11.6984 N   0  0  0  0  0  0  0  0  0  0  0  0
   -0.4732    4.0064   11.5697 N   0  0  0  0  0  0  0  0  0  0  0  0
   -0.4387    3.0510    8.6077 C   0  0  0  0  0  0  0  0  0  0  0  0
    0.0814    2.2042    9.5582 C   0  0  0  0  0  0  0  0  0  0  0  0
    1.4285    1.9312    9.5180 C   0  0  0  0  0  0  0  0  0  0  0  0
    2.2603    2.4901    8.5453 C   0  0  0  0  0  0  0  0  0  0  0  0
    1.7508    3.3388    7.5892 C   0  0  0  0  0  0  0  0  0  0  0  0
    0.3849    3.5984    7.6526 C   0  0  0  0  0  0  0  0  0  0  0  0
    3.5676    2.2176    8.5159 F   0  0  0  0  0  0  0  0  0  0  0  0
  1  2  1  0
  2  3  1  0
  3  4  2  0
  4  5  1  0
  5  6  2  0
  6  7  1  0
  7  8  2  0
  7  9  1  0
  9 10  1  0
  9 11  1  0
  9 12  1  0
  5 13  1  0
 13 14  1  0
 13 15  1  0
 13 16  1  0
  2 17  1  0
 17 18  1  0
 18 19  1  0
 19 20  1  0
 20 21  1  0
 21 22  1  0
 22 23  1  0
 20 24  1  0
 24 25  1  0
 25 26  2  0
 26 27  1  0
 27 28  2  0
 27 29  1  0
 29 30  1  0
 19 31  1  0
 31 32  2  0
 32 33  1  0
 33 34  2  0
 34 35  1  0
 35 36  2  0
 34 37  1  0
  8  3  1  0
 23 18  1  0
 30 25  1  0
 36 31  1  0
M  END
$$$$
