
     RDKit          3D

 37 40  0  0  0  0  0  0  0  0999 V2000
   -3.3574   -0.7546    9.2607 C   0  0  0  0  0  0  0  0  0  0  0  0
   -1.9884   -0.0770    9.2833 C   0  0  0  0  0  0  0  0  0  0  0  0
   -1.0605   -0.9948    8.5864 C   0  0  0  0  0  0  0  0  0  0  0  0
   -1.3014   -1.5310    7.3388 C   0  0  0  0  0  0  0  0  0  0  0  0
   -0.4037   -2.3873    6.7255 C   0  0  0  0  0  0  0  0  0  0  0  0
    0.7549   -2.7145    7.3681 C   0  0  0  0  0  0  0  0  0  0  0  0
    1.0335   -2.2075    8.6024 C   0  0  0  0  0  0  0  0  0  0  0  0
    0.1204   -1.3509    9.1998 C   0  0  0  0  0  0  0  0  0  0  0  0
    2.2874   -2.5570    9.3069 C   0  0  0  0  0  0  0  0  0  0  0  0
    2.4291   -1.7594   10.4297 F   0  0  0  0  0  0  0  0  0  0  0  0
    2.2336   -3.8831    9.7521 F   0  0  0  0  0  0  0  0  0  0  0  0
    3.3506   -2.3872    8.4647 F   0  0  0  0  0  0  0  0  0  0  0  0
   -0.6511   -2.9728    5.3798 C   0  0  0  0  0  0  0  0  0  0  0  0
   -1.3922   -2.0658    4.6483 F   0  0  0  0  0  0  0  0  0  0  0  0
    0.5512   -3.1370    4.6981 F   0  0  0  0  0  0  0  0  0  0  0  0
   -1.3722   -4.1393    5.4347 F   0  0  0  0  0  0  0  0  0  0  0  0
   -2.0686    1.1796    8.6939 O   0  0  0  0  0  0  0  0  0  0  0  0
   -1.2809    2.1337    9.3043 C   0  0  0  0  0  0  0  0  0  0  0  0
   -1.7084    3.5047    8.9223 C   0  0  0  0  0  0  0  0  0  0  0  0
   -1.0532    4.5440    9.7005 N   0  0  0  0  0  0  0  0  0  0  0  0
   -0.3174    4.0309   10.8034 C   0  0  0  0  0  0  0  0  0  0  0  0
   -1.1330    2.9558   11.4835 C   0  0  0  0  0  0  0  0  0  0  0  0
   -1.2357    1.8726   10.6562 O   0  0  0  0  0  0  0  0  0  0  0  0
   -1.9562    5.5957   10.0337 C   0  0  0  0  0  0  0  0  0  0  0  0
   -1.4338    6.4330   11.1282 C   0  0  0  0  0  0  0  0  0  0  0  0
   -1.2958    6.1511   12.4346 N   0  0  0  0  0  0  0  0  0  0  0  0
   -0.7764    7.1910   13.1043 C   0  0  0  0  0  0  0  0  0  0  0  0
   -0.5123    7.2812   14.3312 O   0  0  0  0  0  0  0  0  0  0  0  0
   -0.5773    8.1650   12.1981 N   0  0  0  0  0  0  0  0  0  0  0  0
   -0.9695    7.7124   11.0202 N   0  0  0  0  0  0  0  0  0  0  0  0
   -1.2940    3.7401    7.5100 C   0  0  0  0  0  0  0  0  0  0  0  0
   -2.1680    4.1949    6.5506 C   0  0  0  0  0  0  0  0  0  0  0  0
   -1.6920    4.3821    5.2742 C   0  0  0  0  0  0  0  0  0  0  0  0
   -0.3602    4.1223    4.9438 C   0  0  0  0  0  0  0  0  0  0  0  0
    0.5234    3.6669    5.8957 C   0  0  0  0  0  0  0  0  0  0  0  0
    0.0160    3.4861    7.1790 C   0  0  0  0  0  0  0  0  0  0  0  0
    0.0912    4.3079    3.7004 F   0  0  0  0  0  0  0  0  0  0  0  0
  1  2  1  0
  2  3  1  0
  3  4  2  0
  4  5  1  0
  5  6  2  0
  6  7  1  0
  7  8  2  0
  7  9  1  0
  9 10  1  0
  9 11  1  0
  9 12  1  0
  5 13  1  0
 13 14  1  0
 13 15  1  0
 13 16  1  0
  2 17  1  0
 17 18  1  0
 18 19  1  0
 19 20  1  0
 20 21  1  0
 21 22  1  0
 22 23  1  0
 20 24  1  0
 24 25  1  0
 25 26  2  0
 26 27  1  0
 27 28  2  0
 27 29  1  0
 29 30  1  0
 19 31  1  0
 31 32  2  0
 32 33  1  0
 33 34  2  0
 34 35  1  0
 35 36  2  0
 34 37  1  0
  8  3  1  0
 23 18  1  0
 30 25  1  0
 36 31  1  0
M  END
$$$$
