
     RDKit          3D

 37 40  0  0  0  0  0  0  0  0999 V2000
   -0.2096   -0.3553    8.0013 C   0  0  0  0  0  0  0  0  0  0  0  0
    0.0487    1.1431    8.1496 C   0  0  0  0  0  0  0  0  0  0  0  0
   -0.4699    1.7767    6.9173 C   0  0  0  0  0  0  0  0  0  0  0  0
   -1.4969    2.6971    6.8993 C   0  0  0  0  0  0  0  0  0  0  0  0
   -1.9502    3.2634    5.7207 C   0  0  0  0  0  0  0  0  0  0  0  0
   -1.3687    2.9053    4.5392 C   0  0  0  0  0  0  0  0  0  0  0  0
   -0.3506    1.9993    4.5107 C   0  0  0  0  0  0  0  0  0  0  0  0
    0.0889    1.4433    5.7032 C   0  0  0  0  0  0  0  0  0  0  0  0
    0.2858    1.6048    3.2340 C   0  0  0  0  0  0  0  0  0  0  0  0
    0.2545    2.6691    2.3490 F   0  0  0  0  0  0  0  0  0  0  0  0
    1.6331    1.2903    3.4470 F   0  0  0  0  0  0  0  0  0  0  0  0
   -0.3702    0.5276    2.7069 F   0  0  0  0  0  0  0  0  0  0  0  0
   -3.0572    4.2576    5.6870 C   0  0  0  0  0  0  0  0  0  0  0  0
   -3.4306    4.4376    4.3697 F   0  0  0  0  0  0  0  0  0  0  0  0
   -4.1753    3.7550    6.3462 F   0  0  0  0  0  0  0  0  0  0  0  0
   -2.6823    5.4839    6.1762 F   0  0  0  0  0  0  0  0  0  0  0  0
   -0.5524    1.6181    9.3098 O   0  0  0  0  0  0  0  0  0  0  0  0
    0.2871    2.3691   10.1063 C   0  0  0  0  0  0  0  0  0  0  0  0
   -0.4708    3.0559   11.1843 C   0  0  0  0  0  0  0  0  0  0  0  0
    0.3891    3.6844   12.1745 N   0  0  0  0  0  0  0  0  0  0  0  0
    1.7569    3.3247   12.0302 C   0  0  0  0  0  0  0  0  0  0  0  0
    1.8509    1.8415   11.7564 C   0  0  0  0  0  0  0  0  0  0  0  0
    1.3342    1.5749   10.5194 O   0  0  0  0  0  0  0  0  0  0  0  0
   -0.1263    3.5211   13.4938 C   0  0  0  0  0  0  0  0  0  0  0  0
   -0.4541    4.8179   14.1126 C   0  0  0  0  0  0  0  0  0  0  0  0
    0.0102    5.3709   15.2456 N   0  0  0  0  0  0  0  0  0  0  0  0
   -0.5429    6.5738   15.4618 C   0  0  0  0  0  0  0  0  0  0  0  0
   -0.3438    7.3687   16.4167 O   0  0  0  0  0  0  0  0  0  0  0  0
   -1.3848    6.7945   14.4362 N   0  0  0  0  0  0  0  0  0  0  0  0
   -1.3314    5.7473   13.6322 N   0  0  0  0  0  0  0  0  0  0  0  0
   -1.2482    4.1670   10.5655 C   0  0  0  0  0  0  0  0  0  0  0  0
   -2.6085    4.0994   10.3758 C   0  0  0  0  0  0  0  0  0  0  0  0
   -3.2381    5.1759    9.7965 C   0  0  0  0  0  0  0  0  0  0  0  0
   -2.5306    6.3148    9.4055 C   0  0  0  0  0  0  0  0  0  0  0  0
   -1.1692    6.3935    9.5905 C   0  0  0  0  0  0  0  0  0  0  0  0
   -0.5568    5.2906   10.1787 C   0  0  0  0  0  0  0  0  0  0  0  0
   -3.1529    7.3547    8.8438 F   0  0  0  0  0  0  0  0  0  0  0  0
  1  2  1  0
  2  3  1  0
  3  4  2  0
  4  5  1  0
  5  6  2  0
  6  7  1  0
  7  8  2  0
  7  9  1  0
  9 10  1  0
  9 11  1  0
  9 12  1  0
  5 13  1  0
 13 14  1  0
 13 15  1  0
 13 16  1  0
  2 17  1  0
 17 18  1  0
 18 19  1  0
 19 20  1  0
 20 21  1  0
 21 22  1  0
 22 23  1  0
 20 24  1  0
 24 25  1  0
 25 26  2  0
 26 27  1  0
 27 28  2  0
 27 29  1  0
 29 30  1  0
 19 31  1  0
 31 32  2  0
 32 33  1  0
 33 34  2  0
 34 35  1  0
 35 36  2  0
 34 37  1  0
  8  3  1  0
 23 18  1  0
 30 25  1  0
 36 31  1  0
M  END
$$$$
