
     RDKit          3D

 37 40  0  0  0  0  0  0  0  0999 V2000
   -1.4017    0.6760   11.1488 C   0  0  0  0  0  0  0  0  0  0  0  0
    0.0793    0.8494   10.8163 C   0  0  0  0  0  0  0  0  0  0  0  0
    0.6830   -0.4988   10.8987 C   0  0  0  0  0  0  0  0  0  0  0  0
    0.6128   -1.3061   12.0146 C   0  0  0  0  0  0  0  0  0  0  0  0
    1.1944   -2.5615   12.0463 C   0  0  0  0  0  0  0  0  0  0  0  0
    1.8577   -3.0197   10.9452 C   0  0  0  0  0  0  0  0  0  0  0  0
    1.9516   -2.2550    9.8207 C   0  0  0  0  0  0  0  0  0  0  0  0
    1.3616   -0.9995    9.8095 C   0  0  0  0  0  0  0  0  0  0  0  0
    2.6691   -2.7437    8.6219 C   0  0  0  0  0  0  0  0  0  0  0  0
    2.9475   -4.0925    8.7628 F   0  0  0  0  0  0  0  0  0  0  0  0
    1.8571   -2.6103    7.4895 F   0  0  0  0  0  0  0  0  0  0  0  0
    3.8253   -2.0333    8.4569 F   0  0  0  0  0  0  0  0  0  0  0  0
    1.1262   -3.4428   13.2437 C   0  0  0  0  0  0  0  0  0  0  0  0
    1.5958   -2.7282   14.3281 F   0  0  0  0  0  0  0  0  0  0  0  0
   -0.1974   -3.7644   13.5296 F   0  0  0  0  0  0  0  0  0  0  0  0
    1.9106   -4.5625   13.1220 F   0  0  0  0  0  0  0  0  0  0  0  0
    0.2212    1.4426    9.5670 O   0  0  0  0  0  0  0  0  0  0  0  0
   -0.0464    2.7960    9.5579 C   0  0  0  0  0  0  0  0  0  0  0  0
   -1.1596    3.1151    8.6267 C   0  0  0  0  0  0  0  0  0  0  0  0
   -1.6212    4.4895    8.7395 N   0  0  0  0  0  0  0  0  0  0  0  0
   -1.0704    5.1699    9.8597 C   0  0  0  0  0  0  0  0  0  0  0  0
   -1.0918    4.2477   11.0567 C   0  0  0  0  0  0  0  0  0  0  0  0
   -0.2076    3.2247   10.8572 O   0  0  0  0  0  0  0  0  0  0  0  0
   -3.0409    4.5742    8.6394 C   0  0  0  0  0  0  0  0  0  0  0  0
   -3.4594    5.1862    7.3656 C   0  0  0  0  0  0  0  0  0  0  0  0
   -4.3928    4.7858    6.4860 N   0  0  0  0  0  0  0  0  0  0  0  0
   -4.4700    5.6258    5.4428 C   0  0  0  0  0  0  0  0  0  0  0  0
   -5.2264    5.5629    4.4393 O   0  0  0  0  0  0  0  0  0  0  0  0
   -3.5588    6.5903    5.6637 N   0  0  0  0  0  0  0  0  0  0  0  0
   -2.9567    6.3276    6.8102 N   0  0  0  0  0  0  0  0  0  0  0  0
   -0.6488    2.9770    7.2331 C   0  0  0  0  0  0  0  0  0  0  0  0
    0.4554    3.6605    6.7809 C   0  0  0  0  0  0  0  0  0  0  0  0
    0.8507    3.4671    5.4781 C   0  0  0  0  0  0  0  0  0  0  0  0
    0.1610    2.6039    4.6239 C   0  0  0  0  0  0  0  0  0  0  0  0
   -0.9453    1.9147    5.0657 C   0  0  0  0  0  0  0  0  0  0  0  0
   -1.3239    2.1284    6.3879 C   0  0  0  0  0  0  0  0  0  0  0  0
    0.5543    2.4238    3.3601 F   0  0  0  0  0  0  0  0  0  0  0  0
  1  2  1  0
  2  3  1  0
  3  4  2  0
  4  5  1  0
  5  6  2  0
  6  7  1  0
  7  8  2  0
  7  9  1  0
  9 10  1  0
  9 11  1  0
  9 12  1  0
  5 13  1  0
 13 14  1  0
 13 15  1  0
 13 16  1  0
  2 17  1  0
 17 18  1  0
 18 19  1  0
 19 20  1  0
 20 21  1  0
 21 22  1  0
 22 23  1  0
 20 24  1  0
 24 25  1  0
 25 26  2  0
 26 27  1  0
 27 28  2  0
 27 29  1  0
 29 30  1  0
 19 31  1  0
 31 32  2  0
 32 33  1  0
 33 34  2  0
 34 35  1  0
 35 36  2  0
 34 37  1  0
  8  3  1  0
 23 18  1  0
 30 25  1  0
 36 31  1  0
M  END
$$$$
