
     RDKit          3D

 37 40  0  0  0  0  0  0  0  0999 V2000
    0.2277    4.2044    4.6930 C   0  0  0  0  0  0  0  0  0  0  0  0
   -0.7167    3.4561    5.6322 C   0  0  0  0  0  0  0  0  0  0  0  0
   -0.2436    2.0546    5.6648 C   0  0  0  0  0  0  0  0  0  0  0  0
   -0.3511    1.1816    4.6025 C   0  0  0  0  0  0  0  0  0  0  0  0
    0.1051   -0.1227    4.6793 C   0  0  0  0  0  0  0  0  0  0  0  0
    0.6787   -0.5640    5.8362 C   0  0  0  0  0  0  0  0  0  0  0  0
    0.8053    0.2650    6.9109 C   0  0  0  0  0  0  0  0  0  0  0  0
    0.3415    1.5688    6.8133 C   0  0  0  0  0  0  0  0  0  0  0  0
    1.4258   -0.2050    8.1697 C   0  0  0  0  0  0  0  0  0  0  0  0
    0.4957   -0.9121    8.9125 F   0  0  0  0  0  0  0  0  0  0  0  0
    2.4769   -1.0852    7.8867 F   0  0  0  0  0  0  0  0  0  0  0  0
    1.8892    0.8660    8.8816 F   0  0  0  0  0  0  0  0  0  0  0  0
   -0.0046   -1.0750    3.5408 C   0  0  0  0  0  0  0  0  0  0  0  0
   -0.9513   -0.5850    2.6629 F   0  0  0  0  0  0  0  0  0  0  0  0
    1.1951   -1.1233    2.8367 F   0  0  0  0  0  0  0  0  0  0  0  0
   -0.4189   -2.3233    3.9331 F   0  0  0  0  0  0  0  0  0  0  0  0
   -0.7270    4.0645    6.8822 O   0  0  0  0  0  0  0  0  0  0  0  0
   -1.9889    4.3932    7.3326 C   0  0  0  0  0  0  0  0  0  0  0  0
   -2.0334    4.4335    8.8174 C   0  0  0  0  0  0  0  0  0  0  0  0
   -3.2768    4.9811    9.3361 N   0  0  0  0  0  0  0  0  0  0  0  0
   -4.0900    5.5648    8.3266 C   0  0  0  0  0  0  0  0  0  0  0  0
   -3.2170    6.3767    7.3978 C   0  0  0  0  0  0  0  0  0  0  0  0
   -2.4062    5.5365    6.6872 O   0  0  0  0  0  0  0  0  0  0  0  0
   -3.0477    5.8205   10.4655 C   0  0  0  0  0  0  0  0  0  0  0  0
   -1.6491    5.7436   10.9238 C   0  0  0  0  0  0  0  0  0  0  0  0
   -1.1133    5.0367   11.9329 N   0  0  0  0  0  0  0  0  0  0  0  0
    0.2092    5.2432   12.0230 C   0  0  0  0  0  0  0  0  0  0  0  0
    1.0263    4.7497   12.8428 O   0  0  0  0  0  0  0  0  0  0  0  0
    0.5262    6.1075   11.0423 N   0  0  0  0  0  0  0  0  0  0  0  0
   -0.5821    6.4054   10.3873 N   0  0  0  0  0  0  0  0  0  0  0  0
   -1.9732    3.0310    9.3187 C   0  0  0  0  0  0  0  0  0  0  0  0
   -3.0922    2.3461    9.7309 C   0  0  0  0  0  0  0  0  0  0  0  0
   -2.9361    1.0549   10.1774 C   0  0  0  0  0  0  0  0  0  0  0  0
   -1.6825    0.4406   10.2178 C   0  0  0  0  0  0  0  0  0  0  0  0
   -0.5559    1.1163    9.8078 C   0  0  0  0  0  0  0  0  0  0  0  0
   -0.7418    2.4212    9.3607 C   0  0  0  0  0  0  0  0  0  0  0  0
   -1.5429   -0.8144   10.6534 F   0  0  0  0  0  0  0  0  0  0  0  0
  1  2  1  0
  2  3  1  0
  3  4  2  0
  4  5  1  0
  5  6  2  0
  6  7  1  0
  7  8  2  0
  7  9  1  0
  9 10  1  0
  9 11  1  0
  9 12  1  0
  5 13  1  0
 13 14  1  0
 13 15  1  0
 13 16  1  0
  2 17  1  0
 17 18  1  0
 18 19  1  0
 19 20  1  0
 20 21  1  0
 21 22  1  0
 22 23  1  0
 20 24  1  0
 24 25  1  0
 25 26  2  0
 26 27  1  0
 27 28  2  0
 27 29  1  0
 29 30  1  0
 19 31  1  0
 31 32  2  0
 32 33  1  0
 33 34  2  0
 34 35  1  0
 35 36  2  0
 34 37  1  0
  8  3  1  0
 23 18  1  0
 30 25  1  0
 36 31  1  0
M  END
$$$$
