
     RDKit          3D

 37 40  0  0  0  0  0  0  0  0999 V2000
   -4.2046    3.0313    6.5800 C   0  0  0  0  0  0  0  0  0  0  0  0
   -2.8359    2.9849    7.2571 C   0  0  0  0  0  0  0  0  0  0  0  0
   -1.9020    2.4094    6.2642 C   0  0  0  0  0  0  0  0  0  0  0  0
   -1.1437    3.1641    5.3939 C   0  0  0  0  0  0  0  0  0  0  0  0
   -0.2831    2.5813    4.4802 C   0  0  0  0  0  0  0  0  0  0  0  0
   -0.1771    1.2215    4.4338 C   0  0  0  0  0  0  0  0  0  0  0  0
   -0.9080    0.4371    5.2755 C   0  0  0  0  0  0  0  0  0  0  0  0
   -1.7648    1.0411    6.1841 C   0  0  0  0  0  0  0  0  0  0  0  0
   -0.7996   -1.0384    5.2322 C   0  0  0  0  0  0  0  0  0  0  0  0
   -1.0823   -1.5635    6.4817 F   0  0  0  0  0  0  0  0  0  0  0  0
   -1.7469   -1.5628    4.3449 F   0  0  0  0  0  0  0  0  0  0  0  0
    0.4600   -1.3955    4.8392 F   0  0  0  0  0  0  0  0  0  0  0  0
    0.5408    3.3837    3.5355 C   0  0  0  0  0  0  0  0  0  0  0  0
    1.8605    3.0092    3.6944 F   0  0  0  0  0  0  0  0  0  0  0  0
    0.2017    3.0766    2.2210 F   0  0  0  0  0  0  0  0  0  0  0  0
    0.4665    4.7318    3.7821 F   0  0  0  0  0  0  0  0  0  0  0  0
   -2.4722    4.2567    7.6849 O   0  0  0  0  0  0  0  0  0  0  0  0
   -2.9605    4.5870    8.9322 C   0  0  0  0  0  0  0  0  0  0  0  0
   -1.8583    4.9582    9.8572 C   0  0  0  0  0  0  0  0  0  0  0  0
   -2.3319    5.5179   11.1131 N   0  0  0  0  0  0  0  0  0  0  0  0
   -3.7256    5.7986   11.1051 C   0  0  0  0  0  0  0  0  0  0  0  0
   -4.0922    6.4404    9.7870 C   0  0  0  0  0  0  0  0  0  0  0  0
   -3.9612    5.5220    8.7832 O   0  0  0  0  0  0  0  0  0  0  0  0
   -1.5152    6.6048   11.5423 C   0  0  0  0  0  0  0  0  0  0  0  0
   -0.7703    6.2722   12.7697 C   0  0  0  0  0  0  0  0  0  0  0  0
    0.4634    6.6416   13.1526 N   0  0  0  0  0  0  0  0  0  0  0  0
    0.7772    6.1222   14.3490 C   0  0  0  0  0  0  0  0  0  0  0  0
    1.8405    6.2569   15.0083 O   0  0  0  0  0  0  0  0  0  0  0  0
   -0.2879    5.4001   14.7407 N   0  0  0  0  0  0  0  0  0  0  0  0
   -1.2102    5.4899   13.7987 N   0  0  0  0  0  0  0  0  0  0  0  0
   -1.1256    3.7131   10.2244 C   0  0  0  0  0  0  0  0  0  0  0  0
   -1.7099    2.4695   10.1690 C   0  0  0  0  0  0  0  0  0  0  0  0
   -0.9525    1.3792   10.5273 C   0  0  0  0  0  0  0  0  0  0  0  0
    0.3754    1.5131   10.9386 C   0  0  0  0  0  0  0  0  0  0  0  0
    0.9704    2.7526   10.9979 C   0  0  0  0  0  0  0  0  0  0  0  0
    0.1820    3.8390   10.6301 C   0  0  0  0  0  0  0  0  0  0  0  0
    1.1016    0.4466   11.2843 F   0  0  0  0  0  0  0  0  0  0  0  0
  1  2  1  0
  2  3  1  0
  3  4  2  0
  4  5  1  0
  5  6  2  0
  6  7  1  0
  7  8  2  0
  7  9  1  0
  9 10  1  0
  9 11  1  0
  9 12  1  0
  5 13  1  0
 13 14  1  0
 13 15  1  0
 13 16  1  0
  2 17  1  0
 17 18  1  0
 18 19  1  0
 19 20  1  0
 20 21  1  0
 21 22  1  0
 22 23  1  0
 20 24  1  0
 24 25  1  0
 25 26  2  0
 26 27  1  0
 27 28  2  0
 27 29  1  0
 29 30  1  0
 19 31  1  0
 31 32  2  0
 32 33  1  0
 33 34  2  0
 34 35  1  0
 35 36  2  0
 34 37  1  0
  8  3  1  0
 23 18  1  0
 30 25  1  0
 36 31  1  0
M  END
$$$$
