
     RDKit          3D

 37 40  0  0  0  0  0  0  0  0999 V2000
    0.2698    6.1160    7.4405 C   0  0  0  0  0  0  0  0  0  0  0  0
   -0.4675    4.8792    7.9509 C   0  0  0  0  0  0  0  0  0  0  0  0
   -0.0155    3.7503    7.1081 C   0  0  0  0  0  0  0  0  0  0  0  0
    0.5867    2.6130    7.6041 C   0  0  0  0  0  0  0  0  0  0  0  0
    0.9946    1.5817    6.7763 C   0  0  0  0  0  0  0  0  0  0  0  0
    0.7981    1.6866    5.4299 C   0  0  0  0  0  0  0  0  0  0  0  0
    0.2067    2.7930    4.8968 C   0  0  0  0  0  0  0  0  0  0  0  0
   -0.1948    3.8156    5.7439 C   0  0  0  0  0  0  0  0  0  0  0  0
   -0.0102    2.9156    3.4378 C   0  0  0  0  0  0  0  0  0  0  0  0
   -0.9474    3.9034    3.1872 F   0  0  0  0  0  0  0  0  0  0  0  0
    1.1765    3.3093    2.8081 F   0  0  0  0  0  0  0  0  0  0  0  0
   -0.4341    1.7178    2.9338 F   0  0  0  0  0  0  0  0  0  0  0  0
    1.6455    0.3492    7.2982 C   0  0  0  0  0  0  0  0  0  0  0  0
    1.4339   -0.6656    6.3858 F   0  0  0  0  0  0  0  0  0  0  0  0
    3.0238    0.5279    7.3730 F   0  0  0  0  0  0  0  0  0  0  0  0
    1.1165   -0.0619    8.4960 F   0  0  0  0  0  0  0  0  0  0  0  0
   -0.2097    4.6953    9.3047 O   0  0  0  0  0  0  0  0  0  0  0  0
   -1.2514    4.1134    9.9973 C   0  0  0  0  0  0  0  0  0  0  0  0
   -0.8164    3.6747   11.3488 C   0  0  0  0  0  0  0  0  0  0  0  0
   -1.9216    3.2525   12.1945 N   0  0  0  0  0  0  0  0  0  0  0  0
   -3.1940    3.5556   11.6375 C   0  0  0  0  0  0  0  0  0  0  0  0
   -3.1577    4.9488   11.0532 C   0  0  0  0  0  0  0  0  0  0  0  0
   -2.3365    4.9613    9.9605 O   0  0  0  0  0  0  0  0  0  0  0  0
   -1.7483    3.6919   13.5397 C   0  0  0  0  0  0  0  0  0  0  0  0
   -1.3499    5.1095   13.6003 C   0  0  0  0  0  0  0  0  0  0  0  0
   -1.9916    6.1599   14.1389 N   0  0  0  0  0  0  0  0  0  0  0  0
   -1.2878    7.2914   13.9838 C   0  0  0  0  0  0  0  0  0  0  0  0
   -1.5811    8.4556   14.3605 O   0  0  0  0  0  0  0  0  0  0  0  0
   -0.1640    6.9526   13.3269 N   0  0  0  0  0  0  0  0  0  0  0  0
   -0.2016    5.6516   13.0986 N   0  0  0  0  0  0  0  0  0  0  0  0
    0.0471    2.4706   11.1869 C   0  0  0  0  0  0  0  0  0  0  0  0
    1.4048    2.5019   11.4031 C   0  0  0  0  0  0  0  0  0  0  0  0
    2.1176    1.3390   11.2285 C   0  0  0  0  0  0  0  0  0  0  0  0
    1.4955    0.1497   10.8424 C   0  0  0  0  0  0  0  0  0  0  0  0
    0.1375    0.1067   10.6233 C   0  0  0  0  0  0  0  0  0  0  0  0
   -0.5599    1.2970   10.8070 C   0  0  0  0  0  0  0  0  0  0  0  0
    2.1981   -0.9741   10.6758 F   0  0  0  0  0  0  0  0  0  0  0  0
  1  2  1  0
  2  3  1  0
  3  4  2  0
  4  5  1  0
  5  6  2  0
  6  7  1  0
  7  8  2  0
  7  9  1  0
  9 10  1  0
  9 11  1  0
  9 12  1  0
  5 13  1  0
 13 14  1  0
 13 15  1  0
 13 16  1  0
  2 17  1  0
 17 18  1  0
 18 19  1  0
 19 20  1  0
 20 21  1  0
 21 22  1  0
 22 23  1  0
 20 24  1  0
 24 25  1  0
 25 26  2  0
 26 27  1  0
 27 28  2  0
 27 29  1  0
 29 30  1  0
 19 31  1  0
 31 32  2  0
 32 33  1  0
 33 34  2  0
 34 35  1  0
 35 36  2  0
 34 37  1  0
  8  3  1  0
 23 18  1  0
 30 25  1  0
 36 31  1  0
M  END
$$$$
