
     RDKit          3D

 37 40  0  0  0  0  0  0  0  0999 V2000
   -2.9885    3.7254    6.9160 C   0  0  0  0  0  0  0  0  0  0  0  0
   -2.2565    2.4619    7.3648 C   0  0  0  0  0  0  0  0  0  0  0  0
   -1.3907    2.0610    6.2340 C   0  0  0  0  0  0  0  0  0  0  0  0
   -0.8136    2.9520    5.3536 C   0  0  0  0  0  0  0  0  0  0  0  0
   -0.0106    2.5303    4.3083 C   0  0  0  0  0  0  0  0  0  0  0  0
    0.2208    1.1962    4.1382 C   0  0  0  0  0  0  0  0  0  0  0  0
   -0.3295    0.2807    4.9850 C   0  0  0  0  0  0  0  0  0  0  0  0
   -1.1315    0.7241    6.0265 C   0  0  0  0  0  0  0  0  0  0  0  0
   -0.0842   -1.1682    4.8081 C   0  0  0  0  0  0  0  0  0  0  0  0
   -0.0766   -1.7939    6.0431 F   0  0  0  0  0  0  0  0  0  0  0  0
   -1.1222   -1.7431    4.0654 F   0  0  0  0  0  0  0  0  0  0  0  0
    1.1101   -1.3578    4.1707 F   0  0  0  0  0  0  0  0  0  0  0  0
    0.6183    3.4809    3.3512 C   0  0  0  0  0  0  0  0  0  0  0  0
    1.1916    2.7458    2.3325 F   0  0  0  0  0  0  0  0  0  0  0  0
   -0.3544    4.2806    2.7582 F   0  0  0  0  0  0  0  0  0  0  0  0
    1.6154    4.2286    3.9262 F   0  0  0  0  0  0  0  0  0  0  0  0
   -1.5529    2.7097    8.5380 O   0  0  0  0  0  0  0  0  0  0  0  0
   -1.9296    1.9070    9.5950 C   0  0  0  0  0  0  0  0  0  0  0  0
   -1.4947    2.4898   10.8910 C   0  0  0  0  0  0  0  0  0  0  0  0
   -2.0500    1.7970   12.0427 N   0  0  0  0  0  0  0  0  0  0  0  0
   -3.0591    0.8588   11.6927 C   0  0  0  0  0  0  0  0  0  0  0  0
   -3.9651    1.4740   10.6514 C   0  0  0  0  0  0  0  0  0  0  0  0
   -3.2739    1.6275    9.4822 O   0  0  0  0  0  0  0  0  0  0  0  0
   -2.4266    2.7102   13.0708 C   0  0  0  0  0  0  0  0  0  0  0  0
   -2.0132    4.0881   12.7506 C   0  0  0  0  0  0  0  0  0  0  0  0
   -0.8254    4.6912   12.9255 N   0  0  0  0  0  0  0  0  0  0  0  0
   -0.8585    5.9632   12.5005 C   0  0  0  0  0  0  0  0  0  0  0  0
    0.0647    6.8180   12.5105 O   0  0  0  0  0  0  0  0  0  0  0  0
   -2.1044    6.1776   12.0409 N   0  0  0  0  0  0  0  0  0  0  0  0
   -2.7923    5.0594   12.1903 N   0  0  0  0  0  0  0  0  0  0  0  0
   -0.0172    2.3247   10.9980 C   0  0  0  0  0  0  0  0  0  0  0  0
    0.8564    3.3737   10.8321 C   0  0  0  0  0  0  0  0  0  0  0  0
    2.2032    3.1227   10.9500 C   0  0  0  0  0  0  0  0  0  0  0  0
    2.6879    1.8433   11.2303 C   0  0  0  0  0  0  0  0  0  0  0  0
    1.8230    0.7861   11.3983 C   0  0  0  0  0  0  0  0  0  0  0  0
    0.4656    1.0673   11.2738 C   0  0  0  0  0  0  0  0  0  0  0  0
    3.9985    1.6112   11.3428 F   0  0  0  0  0  0  0  0  0  0  0  0
  1  2  1  0
  2  3  1  0
  3  4  2  0
  4  5  1  0
  5  6  2  0
  6  7  1  0
  7  8  2  0
  7  9  1  0
  9 10  1  0
  9 11  1  0
  9 12  1  0
  5 13  1  0
 13 14  1  0
 13 15  1  0
 13 16  1  0
  2 17  1  0
 17 18  1  0
 18 19  1  0
 19 20  1  0
 20 21  1  0
 21 22  1  0
 22 23  1  0
 20 24  1  0
 24 25  1  0
 25 26  2  0
 26 27  1  0
 27 28  2  0
 27 29  1  0
 29 30  1  0
 19 31  1  0
 31 32  2  0
 32 33  1  0
 33 34  2  0
 34 35  1  0
 35 36  2  0
 34 37  1  0
  8  3  1  0
 23 18  1  0
 30 25  1  0
 36 31  1  0
M  END
$$$$
