
     RDKit          3D

 18 19  0  0  0  0  0  0  0  0999 V2000
   -5.0190    4.0390    6.3730 C   0  0  0  0  0  0  0  0  0  0  0  0
   -5.5644    3.3220    5.2250 N   0  0  0  0  0  0  0  0  0  0  0  0
   -6.9691    3.1457    4.9494 C   0  0  0  0  0  0  0  0  0  0  0  0
   -6.9685    2.7731    3.5099 C   0  0  0  0  0  0  0  0  0  0  0  0
   -7.9775    2.8293    2.7585 O   0  0  0  0  0  0  0  0  0  0  0  0
   -5.6420    2.3676    3.2161 N   0  0  0  0  0  0  0  0  0  0  0  0
   -4.8382    2.6731    4.1798 C   0  0  0  0  0  0  0  0  0  0  0  0
   -3.4362    2.4311    4.2558 N   0  0  0  0  0  0  0  0  0  0  0  0
   -2.7604    1.7301    3.2143 C   0  0  0  0  0  0  0  0  0  0  0  0
   -3.2656    1.7759    2.0643 O   0  0  0  0  0  0  0  0  0  0  0  0
   -1.5506    0.9987    3.4615 N   0  0  0  0  0  0  0  0  0  0  0  0
   -0.7196    0.5875    2.4016 C   0  0  0  0  0  0  0  0  0  0  0  0
   -1.2729   -0.1440    1.3730 C   0  0  0  0  0  0  0  0  0  0  0  0
   -0.4726   -0.5580    0.3215 C   0  0  0  0  0  0  0  0  0  0  0  0
    0.8721   -0.2526    0.2810 C   0  0  0  0  0  0  0  0  0  0  0  0
    1.4042    0.4768    1.3147 C   0  0  0  0  0  0  0  0  0  0  0  0
    0.6319    0.9059    2.3807 C   0  0  0  0  0  0  0  0  0  0  0  0
   -1.1430   -1.4937   -1.0098 Cl  0  0  0  0  0  0  0  0  0  0  0  0
  1  2  1  0
  2  3  1  0
  3  4  1  0
  4  5  2  0
  4  6  1  0
  6  7  2  0
  7  8  1  0
  8  9  1  0
  9 10  2  0
  9 11  1  0
 11 12  1  0
 12 13  2  0
 13 14  1  0
 14 15  2  0
 15 16  1  0
 16 17  2  0
 14 18  1  0
  7  2  1  0
 17 12  1  0
M  END
$$$$
