
     RDKit          3D

 18 19  0  0  0  0  0  0  0  0999 V2000
   -5.9730    3.7554    6.2799 C   0  0  0  0  0  0  0  0  0  0  0  0
   -6.2126    3.0595    5.0199 N   0  0  0  0  0  0  0  0  0  0  0  0
   -7.4977    2.9251    4.3791 C   0  0  0  0  0  0  0  0  0  0  0  0
   -7.1245    2.5590    2.9870 C   0  0  0  0  0  0  0  0  0  0  0  0
   -7.8956    2.6476    1.9954 O   0  0  0  0  0  0  0  0  0  0  0  0
   -5.7789    2.1167    3.0512 N   0  0  0  0  0  0  0  0  0  0  0  0
   -5.2523    2.3945    4.1974 C   0  0  0  0  0  0  0  0  0  0  0  0
   -3.9278    2.1119    4.6400 N   0  0  0  0  0  0  0  0  0  0  0  0
   -2.9494    1.6065    3.7345 C   0  0  0  0  0  0  0  0  0  0  0  0
   -3.3307    1.3222    2.5710 O   0  0  0  0  0  0  0  0  0  0  0  0
   -1.5812    1.4266    4.1285 N   0  0  0  0  0  0  0  0  0  0  0  0
   -0.6102    0.9895    3.2071 C   0  0  0  0  0  0  0  0  0  0  0  0
   -0.9918    0.1234    2.2053 C   0  0  0  0  0  0  0  0  0  0  0  0
   -0.0519   -0.3182    1.2891 C   0  0  0  0  0  0  0  0  0  0  0  0
    1.2635    0.0917    1.3579 C   0  0  0  0  0  0  0  0  0  0  0  0
    1.6237    0.9543    2.3628 C   0  0  0  0  0  0  0  0  0  0  0  0
    0.7089    1.4146    3.2945 C   0  0  0  0  0  0  0  0  0  0  0  0
   -0.5012   -1.4243   -0.0039 Cl  0  0  0  0  0  0  0  0  0  0  0  0
  1  2  1  0
  2  3  1  0
  3  4  1  0
  4  5  2  0
  4  6  1  0
  6  7  2  0
  7  8  1  0
  8  9  1  0
  9 10  2  0
  9 11  1  0
 11 12  1  0
 12 13  2  0
 13 14  1  0
 14 15  2  0
 15 16  1  0
 16 17  2  0
 14 18  1  0
  7  2  1  0
 17 12  1  0
M  END
$$$$
