
     RDKit          3D

 18 19  0  0  0  0  0  0  0  0999 V2000
   -5.3799    3.9530    6.2858 C   0  0  0  0  0  0  0  0  0  0  0  0
   -5.8389    3.1058    5.1899 N   0  0  0  0  0  0  0  0  0  0  0  0
   -7.2177    2.7886    4.9096 C   0  0  0  0  0  0  0  0  0  0  0  0
   -7.1561    2.3083    3.5036 C   0  0  0  0  0  0  0  0  0  0  0  0
   -8.1507    2.2197    2.7363 O   0  0  0  0  0  0  0  0  0  0  0  0
   -5.7943    1.9973    3.2607 N   0  0  0  0  0  0  0  0  0  0  0  0
   -5.0391    2.4437    4.2087 C   0  0  0  0  0  0  0  0  0  0  0  0
   -3.6235    2.3299    4.3226 N   0  0  0  0  0  0  0  0  0  0  0  0
   -2.8724    1.5909    3.3622 C   0  0  0  0  0  0  0  0  0  0  0  0
   -3.3644    1.4706    2.2119 O   0  0  0  0  0  0  0  0  0  0  0  0
   -1.6038    1.0045    3.6884 N   0  0  0  0  0  0  0  0  0  0  0  0
   -0.7678    0.4752    2.6865 C   0  0  0  0  0  0  0  0  0  0  0  0
   -1.3434   -0.2120    1.6398 C   0  0  0  0  0  0  0  0  0  0  0  0
   -0.5385   -0.7402    0.6444 C   0  0  0  0  0  0  0  0  0  0  0  0
    0.8326   -0.5929    0.6781 C   0  0  0  0  0  0  0  0  0  0  0  0
    1.3868    0.0946    1.7288 C   0  0  0  0  0  0  0  0  0  0  0  0
    0.6107    0.6351    2.7399 C   0  0  0  0  0  0  0  0  0  0  0  0
   -1.2369   -1.6238   -0.7079 Cl  0  0  0  0  0  0  0  0  0  0  0  0
  1  2  1  0
  2  3  1  0
  3  4  1  0
  4  5  2  0
  4  6  1  0
  6  7  2  0
  7  8  1  0
  8  9  1  0
  9 10  2  0
  9 11  1  0
 11 12  1  0
 12 13  2  0
 13 14  1  0
 14 15  2  0
 15 16  1  0
 16 17  2  0
 14 18  1  0
  7  2  1  0
 17 12  1  0
M  END
$$$$
