
     RDKit          3D

 18 19  0  0  0  0  0  0  0  0999 V2000
   -4.3253    3.9818    6.2188 C   0  0  0  0  0  0  0  0  0  0  0  0
   -5.0750    3.2279    5.2193 N   0  0  0  0  0  0  0  0  0  0  0  0
   -6.4946    2.9767    5.2640 C   0  0  0  0  0  0  0  0  0  0  0  0
   -6.7960    2.5927    3.8594 C   0  0  0  0  0  0  0  0  0  0  0  0
   -7.9489    2.5903    3.3528 O   0  0  0  0  0  0  0  0  0  0  0  0
   -5.5493    2.2543    3.2751 N   0  0  0  0  0  0  0  0  0  0  0  0
   -4.5676    2.6090    4.0359 C   0  0  0  0  0  0  0  0  0  0  0  0
   -3.1734    2.4408    3.7957 N   0  0  0  0  0  0  0  0  0  0  0  0
   -2.7124    1.7217    2.6541 C   0  0  0  0  0  0  0  0  0  0  0  0
   -3.4356    1.7435    1.6264 O   0  0  0  0  0  0  0  0  0  0  0  0
   -1.4725    0.9992    2.6701 N   0  0  0  0  0  0  0  0  0  0  0  0
   -0.8855    0.5351    1.4773 C   0  0  0  0  0  0  0  0  0  0  0  0
   -1.6925    0.3305    0.3790 C   0  0  0  0  0  0  0  0  0  0  0  0
   -1.1344   -0.1256   -0.8035 C   0  0  0  0  0  0  0  0  0  0  0  0
    0.2173   -0.3807   -0.9063 C   0  0  0  0  0  0  0  0  0  0  0  0
    1.0042   -0.1708    0.1985 C   0  0  0  0  0  0  0  0  0  0  0  0
    0.4780    0.2845    1.3954 C   0  0  0  0  0  0  0  0  0  0  0  0
   -2.1326   -0.3987   -2.2269 Cl  0  0  0  0  0  0  0  0  0  0  0  0
  1  2  1  0
  2  3  1  0
  3  4  1  0
  4  5  2  0
  4  6  1  0
  6  7  2  0
  7  8  1  0
  8  9  1  0
  9 10  2  0
  9 11  1  0
 11 12  1  0
 12 13  2  0
 13 14  1  0
 14 15  2  0
 15 16  1  0
 16 17  2  0
 14 18  1  0
  7  2  1  0
 17 12  1  0
M  END
$$$$
