
     RDKit          3D

 18 19  0  0  0  0  0  0  0  0999 V2000
   -4.6217    4.4574    6.2540 C   0  0  0  0  0  0  0  0  0  0  0  0
   -5.3335    3.5557    5.3543 N   0  0  0  0  0  0  0  0  0  0  0  0
   -6.7646    3.3797    5.3191 C   0  0  0  0  0  0  0  0  0  0  0  0
   -6.9761    2.7417    3.9927 C   0  0  0  0  0  0  0  0  0  0  0  0
   -8.0832    2.6901    3.3949 O   0  0  0  0  0  0  0  0  0  0  0  0
   -5.7095    2.2418    3.5979 N   0  0  0  0  0  0  0  0  0  0  0  0
   -4.7718    2.6957    4.3613 C   0  0  0  0  0  0  0  0  0  0  0  0
   -3.3754    2.4235    4.2834 N   0  0  0  0  0  0  0  0  0  0  0  0
   -2.8464    1.6270    3.2259 C   0  0  0  0  0  0  0  0  0  0  0  0
   -3.5807    1.4347    2.2241 O   0  0  0  0  0  0  0  0  0  0  0  0
   -1.5283    1.0635    3.2952 N   0  0  0  0  0  0  0  0  0  0  0  0
   -0.9174    0.4999    2.1585 C   0  0  0  0  0  0  0  0  0  0  0  0
   -1.6307   -0.4080    1.4060 C   0  0  0  0  0  0  0  0  0  0  0  0
   -1.0478   -0.9736    0.2845 C   0  0  0  0  0  0  0  0  0  0  0  0
    0.2369   -0.6468   -0.0974 C   0  0  0  0  0  0  0  0  0  0  0  0
    0.9308    0.2593    0.6651 C   0  0  0  0  0  0  0  0  0  0  0  0
    0.3773    0.8430    1.7918 C   0  0  0  0  0  0  0  0  0  0  0  0
   -1.9271   -2.1364   -0.7013 Cl  0  0  0  0  0  0  0  0  0  0  0  0
  1  2  1  0
  2  3  1  0
  3  4  1  0
  4  5  2  0
  4  6  1  0
  6  7  2  0
  7  8  1  0
  8  9  1  0
  9 10  2  0
  9 11  1  0
 11 12  1  0
 12 13  2  0
 13 14  1  0
 14 15  2  0
 15 16  1  0
 16 17  2  0
 14 18  1  0
  7  2  1  0
 17 12  1  0
M  END
$$$$
