
     RDKit          3D

 18 19  0  0  0  0  0  0  0  0999 V2000
   -4.8111    4.9224    5.8313 C   0  0  0  0  0  0  0  0  0  0  0  0
   -5.5134    3.9332    5.0203 N   0  0  0  0  0  0  0  0  0  0  0  0
   -6.9393    3.7166    5.0286 C   0  0  0  0  0  0  0  0  0  0  0  0
   -7.1569    2.9699    3.7613 C   0  0  0  0  0  0  0  0  0  0  0  0
   -8.2729    2.8412    3.1923 O   0  0  0  0  0  0  0  0  0  0  0  0
   -5.8840    2.4744    3.3810 N   0  0  0  0  0  0  0  0  0  0  0  0
   -4.9458    3.0126    4.0869 C   0  0  0  0  0  0  0  0  0  0  0  0
   -3.5439    2.7728    4.0020 N   0  0  0  0  0  0  0  0  0  0  0  0
   -3.0062    1.9549    2.9653 C   0  0  0  0  0  0  0  0  0  0  0  0
   -3.8140    1.4733    2.1313 O   0  0  0  0  0  0  0  0  0  0  0  0
   -1.5994    1.6874    2.8711 N   0  0  0  0  0  0  0  0  0  0  0  0
   -1.1107    0.6364    2.0715 C   0  0  0  0  0  0  0  0  0  0  0  0
   -1.4075    0.6362    0.7257 C   0  0  0  0  0  0  0  0  0  0  0  0
   -0.9363   -0.3884   -0.0779 C   0  0  0  0  0  0  0  0  0  0  0  0
   -0.1730   -1.4133    0.4417 C   0  0  0  0  0  0  0  0  0  0  0  0
    0.1118   -1.3952    1.7843 C   0  0  0  0  0  0  0  0  0  0  0  0
   -0.3438   -0.3858    2.6151 C   0  0  0  0  0  0  0  0  0  0  0  0
   -1.2946   -0.4229   -1.8005 Cl  0  0  0  0  0  0  0  0  0  0  0  0
  1  2  1  0
  2  3  1  0
  3  4  1  0
  4  5  2  0
  4  6  1  0
  6  7  2  0
  7  8  1  0
  8  9  1  0
  9 10  2  0
  9 11  1  0
 11 12  1  0
 12 13  2  0
 13 14  1  0
 14 15  2  0
 15 16  1  0
 16 17  2  0
 14 18  1  0
  7  2  1  0
 17 12  1  0
M  END
$$$$
