
     RDKit          3D

 18 19  0  0  0  0  0  0  0  0999 V2000
   -4.8444    4.6007    5.9728 C   0  0  0  0  0  0  0  0  0  0  0  0
   -5.5302    3.5678    5.2033 N   0  0  0  0  0  0  0  0  0  0  0  0
   -6.9367    3.2620    5.2962 C   0  0  0  0  0  0  0  0  0  0  0  0
   -7.1820    2.5005    4.0428 C   0  0  0  0  0  0  0  0  0  0  0  0
   -8.3196    2.3007    3.5411 O   0  0  0  0  0  0  0  0  0  0  0  0
   -5.9054    2.0853    3.5865 N   0  0  0  0  0  0  0  0  0  0  0  0
   -4.9625    2.6828    4.2362 C   0  0  0  0  0  0  0  0  0  0  0  0
   -3.5558    2.5313    4.0674 N   0  0  0  0  0  0  0  0  0  0  0  0
   -3.0297    1.7808    2.9754 C   0  0  0  0  0  0  0  0  0  0  0  0
   -3.8466    1.1367    2.2699 O   0  0  0  0  0  0  0  0  0  0  0  0
   -1.6242    1.7567    2.6867 N   0  0  0  0  0  0  0  0  0  0  0  0
   -1.0765    0.7941    1.8171 C   0  0  0  0  0  0  0  0  0  0  0  0
   -1.6531    0.6181    0.5778 C   0  0  0  0  0  0  0  0  0  0  0  0
   -1.1294   -0.3236   -0.2921 C   0  0  0  0  0  0  0  0  0  0  0  0
   -0.0384   -1.0925    0.0565 C   0  0  0  0  0  0  0  0  0  0  0  0
    0.5216   -0.9024    1.2950 C   0  0  0  0  0  0  0  0  0  0  0  0
    0.0225    0.0304    2.1881 C   0  0  0  0  0  0  0  0  0  0  0  0
   -1.8384   -0.5768   -1.8827 Cl  0  0  0  0  0  0  0  0  0  0  0  0
  1  2  1  0
  2  3  1  0
  3  4  1  0
  4  5  2  0
  4  6  1  0
  6  7  2  0
  7  8  1  0
  8  9  1  0
  9 10  2  0
  9 11  1  0
 11 12  1  0
 12 13  2  0
 13 14  1  0
 14 15  2  0
 15 16  1  0
 16 17  2  0
 14 18  1  0
  7  2  1  0
 17 12  1  0
M  END
$$$$
