
     RDKit          3D

 18 19  0  0  0  0  0  0  0  0999 V2000
   -4.1086    4.1427    6.4206 C   0  0  0  0  0  0  0  0  0  0  0  0
   -5.0672    3.3676    5.6398 N   0  0  0  0  0  0  0  0  0  0  0  0
   -6.4755    3.2566    5.9308 C   0  0  0  0  0  0  0  0  0  0  0  0
   -7.0309    2.7659    4.6417 C   0  0  0  0  0  0  0  0  0  0  0  0
   -8.2478    2.8218    4.3224 O   0  0  0  0  0  0  0  0  0  0  0  0
   -5.9262    2.2557    3.9140 N   0  0  0  0  0  0  0  0  0  0  0  0
   -4.8091    2.5900    4.4695 C   0  0  0  0  0  0  0  0  0  0  0  0
   -3.4900    2.2686    4.0377 N   0  0  0  0  0  0  0  0  0  0  0  0
   -3.2651    1.6815    2.7581 C   0  0  0  0  0  0  0  0  0  0  0  0
   -4.1990    1.0027    2.2613 O   0  0  0  0  0  0  0  0  0  0  0  0
   -2.0240    1.8542    2.0586 N   0  0  0  0  0  0  0  0  0  0  0  0
   -1.6698    1.0126    0.9866 C   0  0  0  0  0  0  0  0  0  0  0  0
   -0.4775    0.3245    1.0522 C   0  0  0  0  0  0  0  0  0  0  0  0
   -0.1110   -0.5083    0.0082 C   0  0  0  0  0  0  0  0  0  0  0  0
   -0.9167   -0.6646   -1.1005 C   0  0  0  0  0  0  0  0  0  0  0  0
   -2.1000    0.0293   -1.1470 C   0  0  0  0  0  0  0  0  0  0  0  0
   -2.4959    0.8697   -0.1205 C   0  0  0  0  0  0  0  0  0  0  0  0
    1.4036   -1.4033    0.0558 Cl  0  0  0  0  0  0  0  0  0  0  0  0
  1  2  1  0
  2  3  1  0
  3  4  1  0
  4  5  2  0
  4  6  1  0
  6  7  2  0
  7  8  1  0
  8  9  1  0
  9 10  2  0
  9 11  1  0
 11 12  1  0
 12 13  2  0
 13 14  1  0
 14 15  2  0
 15 16  1  0
 16 17  2  0
 14 18  1  0
  7  2  1  0
 17 12  1  0
M  END
$$$$
