
     RDKit          3D

 18 19  0  0  0  0  0  0  0  0999 V2000
   -5.4202    5.0453    3.7108 C   0  0  0  0  0  0  0  0  0  0  0  0
   -6.0722    3.8122    4.1394 N   0  0  0  0  0  0  0  0  0  0  0  0
   -7.4859    3.6643    4.3840 C   0  0  0  0  0  0  0  0  0  0  0  0
   -7.6649    2.1887    4.3443 C   0  0  0  0  0  0  0  0  0  0  0  0
   -8.7725    1.6088    4.1932 O   0  0  0  0  0  0  0  0  0  0  0  0
   -6.3688    1.6375    4.5074 N   0  0  0  0  0  0  0  0  0  0  0  0
   -5.4590    2.5471    4.3935 C   0  0  0  0  0  0  0  0  0  0  0  0
   -4.0470    2.3855    4.4939 N   0  0  0  0  0  0  0  0  0  0  0  0
   -3.3114    1.7443    3.4545 C   0  0  0  0  0  0  0  0  0  0  0  0
   -3.9428    0.9685    2.6933 O   0  0  0  0  0  0  0  0  0  0  0  0
   -1.9053    1.9705    3.2778 N   0  0  0  0  0  0  0  0  0  0  0  0
   -1.1131    1.0781    2.5301 C   0  0  0  0  0  0  0  0  0  0  0  0
   -1.5050    0.7614    1.2474 C   0  0  0  0  0  0  0  0  0  0  0  0
   -0.7396   -0.1143    0.4957 C   0  0  0  0  0  0  0  0  0  0  0  0
    0.4114   -0.6787    1.0051 C   0  0  0  0  0  0  0  0  0  0  0  0
    0.7849   -0.3507    2.2844 C   0  0  0  0  0  0  0  0  0  0  0  0
    0.0423    0.5211    3.0624 C   0  0  0  0  0  0  0  0  0  0  0  0
   -1.2079   -0.5427   -1.1458 Cl  0  0  0  0  0  0  0  0  0  0  0  0
  1  2  1  0
  2  3  1  0
  3  4  1  0
  4  5  2  0
  4  6  1  0
  6  7  2  0
  7  8  1  0
  8  9  1  0
  9 10  2  0
  9 11  1  0
 11 12  1  0
 12 13  2  0
 13 14  1  0
 14 15  2  0
 15 16  1  0
 16 17  2  0
 14 18  1  0
  7  2  1  0
 17 12  1  0
M  END
$$$$
