
     RDKit          3D

 18 19  0  0  0  0  0  0  0  0999 V2000
   -4.7189    3.8368    6.4938 C   0  0  0  0  0  0  0  0  0  0  0  0
   -5.3682    3.1510    5.3813 N   0  0  0  0  0  0  0  0  0  0  0  0
   -6.7830    3.1796    5.1027 C   0  0  0  0  0  0  0  0  0  0  0  0
   -6.8392    2.7330    3.6855 C   0  0  0  0  0  0  0  0  0  0  0  0
   -7.8266    2.9035    2.9228 O   0  0  0  0  0  0  0  0  0  0  0  0
   -5.5915    2.1114    3.4263 N   0  0  0  0  0  0  0  0  0  0  0  0
   -4.7507    2.3410    4.3795 C   0  0  0  0  0  0  0  0  0  0  0  0
   -3.4033    1.8892    4.4815 N   0  0  0  0  0  0  0  0  0  0  0  0
   -2.7652    1.2464    3.3804 C   0  0  0  0  0  0  0  0  0  0  0  0
   -3.3717    1.2480    2.2795 O   0  0  0  0  0  0  0  0  0  0  0  0
   -1.4812    0.6200    3.5159 N   0  0  0  0  0  0  0  0  0  0  0  0
   -0.7741    0.1589    2.3888 C   0  0  0  0  0  0  0  0  0  0  0  0
   -1.4847   -0.3710    1.3336 C   0  0  0  0  0  0  0  0  0  0  0  0
   -0.8079   -0.8300    0.2160 C   0  0  0  0  0  0  0  0  0  0  0  0
    0.5679   -0.7681    0.1358 C   0  0  0  0  0  0  0  0  0  0  0  0
    1.2575   -0.2370    1.1970 C   0  0  0  0  0  0  0  0  0  0  0  0
    0.6115    0.2307    2.3287 C   0  0  0  0  0  0  0  0  0  0  0  0
   -1.6806   -1.5131   -1.1511 Cl  0  0  0  0  0  0  0  0  0  0  0  0
  1  2  1  0
  2  3  1  0
  3  4  1  0
  4  5  2  0
  4  6  1  0
  6  7  2  0
  7  8  1  0
  8  9  1  0
  9 10  2  0
  9 11  1  0
 11 12  1  0
 12 13  2  0
 13 14  1  0
 14 15  2  0
 15 16  1  0
 16 17  2  0
 14 18  1  0
  7  2  1  0
 17 12  1  0
M  END
$$$$
