
     RDKit          3D

 18 19  0  0  0  0  0  0  0  0999 V2000
   -4.3979    4.6136    5.7580 C   0  0  0  0  0  0  0  0  0  0  0  0
   -5.1666    3.5804    5.0717 N   0  0  0  0  0  0  0  0  0  0  0  0
   -6.5735    3.3286    5.2651 C   0  0  0  0  0  0  0  0  0  0  0  0
   -6.9253    2.5344    4.0582 C   0  0  0  0  0  0  0  0  0  0  0  0
   -8.0992    2.3587    3.6377 O   0  0  0  0  0  0  0  0  0  0  0  0
   -5.6957    2.0583    3.5368 N   0  0  0  0  0  0  0  0  0  0  0  0
   -4.6930    2.6433    4.1030 C   0  0  0  0  0  0  0  0  0  0  0  0
   -3.3062    2.4359    3.8505 N   0  0  0  0  0  0  0  0  0  0  0  0
   -2.8734    1.7594    2.6724 C   0  0  0  0  0  0  0  0  0  0  0  0
   -3.7522    1.1906    1.9767 O   0  0  0  0  0  0  0  0  0  0  0  0
   -1.4908    1.7250    2.2894 N   0  0  0  0  0  0  0  0  0  0  0  0
   -1.0172    0.7812    1.3578 C   0  0  0  0  0  0  0  0  0  0  0  0
   -1.6058    0.7280    0.1128 C   0  0  0  0  0  0  0  0  0  0  0  0
   -1.1545   -0.1931   -0.8175 C   0  0  0  0  0  0  0  0  0  0  0  0
   -0.1244   -1.0623   -0.5238 C   0  0  0  0  0  0  0  0  0  0  0  0
    0.4487   -0.9938    0.7215 C   0  0  0  0  0  0  0  0  0  0  0  0
    0.0213   -0.0848    1.6742 C   0  0  0  0  0  0  0  0  0  0  0  0
   -1.8810   -0.2910   -2.4174 Cl  0  0  0  0  0  0  0  0  0  0  0  0
  1  2  1  0
  2  3  1  0
  3  4  1  0
  4  5  2  0
  4  6  1  0
  6  7  2  0
  7  8  1  0
  8  9  1  0
  9 10  2  0
  9 11  1  0
 11 12  1  0
 12 13  2  0
 13 14  1  0
 14 15  2  0
 15 16  1  0
 16 17  2  0
 14 18  1  0
  7  2  1  0
 17 12  1  0
M  END
$$$$
