
     RDKit          3D

 18 19  0  0  0  0  0  0  0  0999 V2000
   -4.8894    4.5269    6.1655 C   0  0  0  0  0  0  0  0  0  0  0  0
   -5.5583    3.5689    5.2913 N   0  0  0  0  0  0  0  0  0  0  0  0
   -6.9663    3.2579    5.3266 C   0  0  0  0  0  0  0  0  0  0  0  0
   -7.1849    2.6136    4.0044 C   0  0  0  0  0  0  0  0  0  0  0  0
   -8.3117    2.4617    3.4630 O   0  0  0  0  0  0  0  0  0  0  0  0
   -5.8988    2.2398    3.5392 N   0  0  0  0  0  0  0  0  0  0  0  0
   -4.9700    2.7746    4.2599 C   0  0  0  0  0  0  0  0  0  0  0  0
   -3.5600    2.6372    4.1076 N   0  0  0  0  0  0  0  0  0  0  0  0
   -3.0136    1.9015    3.0155 C   0  0  0  0  0  0  0  0  0  0  0  0
   -3.8203    1.2998    2.2626 O   0  0  0  0  0  0  0  0  0  0  0  0
   -1.5992    1.8453    2.7787 N   0  0  0  0  0  0  0  0  0  0  0  0
   -1.0506    0.9256    1.8644 C   0  0  0  0  0  0  0  0  0  0  0  0
   -1.6665    0.7604    0.6426 C   0  0  0  0  0  0  0  0  0  0  0  0
   -1.1426   -0.1393   -0.2705 C   0  0  0  0  0  0  0  0  0  0  0  0
   -0.0129   -0.8768    0.0175 C   0  0  0  0  0  0  0  0  0  0  0  0
    0.5858   -0.6980    1.2395 C   0  0  0  0  0  0  0  0  0  0  0  0
    0.0877    0.1931    2.1747 C   0  0  0  0  0  0  0  0  0  0  0  0
   -1.9010   -0.3776   -1.8406 Cl  0  0  0  0  0  0  0  0  0  0  0  0
  1  2  1  0
  2  3  1  0
  3  4  1  0
  4  5  2  0
  4  6  1  0
  6  7  2  0
  7  8  1  0
  8  9  1  0
  9 10  2  0
  9 11  1  0
 11 12  1  0
 12 13  2  0
 13 14  1  0
 14 15  2  0
 15 16  1  0
 16 17  2  0
 14 18  1  0
  7  2  1  0
 17 12  1  0
M  END
$$$$
