
     RDKit          3D

 18 19  0  0  0  0  0  0  0  0999 V2000
   -5.0480    4.5589    6.1045 C   0  0  0  0  0  0  0  0  0  0  0  0
   -5.6493    3.3614    5.5267 N   0  0  0  0  0  0  0  0  0  0  0  0
   -6.9010    2.7789    5.9441 C   0  0  0  0  0  0  0  0  0  0  0  0
   -7.2488    1.9074    4.7906 C   0  0  0  0  0  0  0  0  0  0  0  0
   -8.3993    1.4471    4.5662 O   0  0  0  0  0  0  0  0  0  0  0  0
   -6.0465    1.7366    4.0588 N   0  0  0  0  0  0  0  0  0  0  0  0
   -5.1337    2.5543    4.4666 C   0  0  0  0  0  0  0  0  0  0  0  0
   -3.8006    2.6856    3.9813 N   0  0  0  0  0  0  0  0  0  0  0  0
   -3.4185    2.1071    2.7356 C   0  0  0  0  0  0  0  0  0  0  0  0
   -4.1380    1.1809    2.2835 O   0  0  0  0  0  0  0  0  0  0  0  0
   -2.2594    2.5588    2.0200 N   0  0  0  0  0  0  0  0  0  0  0  0
   -1.9178    2.0112    0.7685 C   0  0  0  0  0  0  0  0  0  0  0  0
   -1.4998    0.6992    0.7126 C   0  0  0  0  0  0  0  0  0  0  0  0
   -1.1593    0.1420   -0.5086 C   0  0  0  0  0  0  0  0  0  0  0  0
   -1.2297    0.8749   -1.6752 C   0  0  0  0  0  0  0  0  0  0  0  0
   -1.6483    2.1798   -1.5986 C   0  0  0  0  0  0  0  0  0  0  0  0
   -1.9959    2.7669   -0.3940 C   0  0  0  0  0  0  0  0  0  0  0  0
   -0.6213   -1.5299   -0.6200 Cl  0  0  0  0  0  0  0  0  0  0  0  0
  1  2  1  0
  2  3  1  0
  3  4  1  0
  4  5  2  0
  4  6  1  0
  6  7  2  0
  7  8  1  0
  8  9  1  0
  9 10  2  0
  9 11  1  0
 11 12  1  0
 12 13  2  0
 13 14  1  0
 14 15  2  0
 15 16  1  0
 16 17  2  0
 14 18  1  0
  7  2  1  0
 17 12  1  0
M  END
$$$$
