
     RDKit          3D

 18 19  0  0  0  0  0  0  0  0999 V2000
   -4.7147    4.6642    6.0190 C   0  0  0  0  0  0  0  0  0  0  0  0
   -5.4467    3.7318    5.1680 N   0  0  0  0  0  0  0  0  0  0  0  0
   -6.8687    3.4979    5.2270 C   0  0  0  0  0  0  0  0  0  0  0  0
   -7.1407    2.8480    3.9174 C   0  0  0  0  0  0  0  0  0  0  0  0
   -8.2816    2.7499    3.3936 O   0  0  0  0  0  0  0  0  0  0  0  0
   -5.8834    2.3988    3.4403 N   0  0  0  0  0  0  0  0  0  0  0  0
   -4.9169    2.8925    4.1405 C   0  0  0  0  0  0  0  0  0  0  0  0
   -3.5187    2.6770    3.9711 N   0  0  0  0  0  0  0  0  0  0  0  0
   -3.0173    2.0326    2.8023 C   0  0  0  0  0  0  0  0  0  0  0  0
   -3.8588    1.5893    1.9806 O   0  0  0  0  0  0  0  0  0  0  0  0
   -1.6088    1.8917    2.5663 N   0  0  0  0  0  0  0  0  0  0  0  0
   -1.1193    0.9907    1.6012 C   0  0  0  0  0  0  0  0  0  0  0  0
   -1.6214    1.0572    0.3195 C   0  0  0  0  0  0  0  0  0  0  0  0
   -1.1531    0.1799   -0.6441 C   0  0  0  0  0  0  0  0  0  0  0  0
   -0.1910   -0.7632   -0.3477 C   0  0  0  0  0  0  0  0  0  0  0  0
    0.2965   -0.8135    0.9343 C   0  0  0  0  0  0  0  0  0  0  0  0
   -0.1502    0.0488    1.9210 C   0  0  0  0  0  0  0  0  0  0  0  0
   -1.7701    0.2344   -2.2914 Cl  0  0  0  0  0  0  0  0  0  0  0  0
  1  2  1  0
  2  3  1  0
  3  4  1  0
  4  5  2  0
  4  6  1  0
  6  7  2  0
  7  8  1  0
  8  9  1  0
  9 10  2  0
  9 11  1  0
 11 12  1  0
 12 13  2  0
 13 14  1  0
 14 15  2  0
 15 16  1  0
 16 17  2  0
 14 18  1  0
  7  2  1  0
 17 12  1  0
M  END
$$$$
