
     RDKit          3D

 18 19  0  0  0  0  0  0  0  0999 V2000
   -5.2943    3.0139    6.1304 C   0  0  0  0  0  0  0  0  0  0  0  0
   -5.6650    3.1025    4.7218 N   0  0  0  0  0  0  0  0  0  0  0  0
   -6.9373    3.5687    4.2277 C   0  0  0  0  0  0  0  0  0  0  0  0
   -6.6346    3.8768    2.8048 C   0  0  0  0  0  0  0  0  0  0  0  0
   -7.3505    4.6014    2.0644 O   0  0  0  0  0  0  0  0  0  0  0  0
   -5.4245    3.1987    2.5115 N   0  0  0  0  0  0  0  0  0  0  0  0
   -4.8666    2.7559    3.5889 C   0  0  0  0  0  0  0  0  0  0  0  0
   -3.6469    2.0285    3.7038 N   0  0  0  0  0  0  0  0  0  0  0  0
   -2.9792    1.5380    2.5435 C   0  0  0  0  0  0  0  0  0  0  0  0
   -3.3640    1.9719    1.4284 O   0  0  0  0  0  0  0  0  0  0  0  0
   -1.9090    0.5865    2.6370 N   0  0  0  0  0  0  0  0  0  0  0  0
   -1.1564    0.2242    1.5033 C   0  0  0  0  0  0  0  0  0  0  0  0
   -1.8167    0.0057    0.3135 C   0  0  0  0  0  0  0  0  0  0  0  0
   -1.0947   -0.3514   -0.8130 C   0  0  0  0  0  0  0  0  0  0  0  0
    0.2768   -0.4937   -0.7698 C   0  0  0  0  0  0  0  0  0  0  0  0
    0.9158   -0.2717    0.4244 C   0  0  0  0  0  0  0  0  0  0  0  0
    0.2239    0.0864    1.5688 C   0  0  0  0  0  0  0  0  0  0  0  0
   -1.9024   -0.6387   -2.3499 Cl  0  0  0  0  0  0  0  0  0  0  0  0
  1  2  1  0
  2  3  1  0
  3  4  1  0
  4  5  2  0
  4  6  1  0
  6  7  2  0
  7  8  1  0
  8  9  1  0
  9 10  2  0
  9 11  1  0
 11 12  1  0
 12 13  2  0
 13 14  1  0
 14 15  2  0
 15 16  1  0
 16 17  2  0
 14 18  1  0
  7  2  1  0
 17 12  1  0
M  END
$$$$
