
     RDKit          3D

 18 19  0  0  0  0  0  0  0  0999 V2000
   -4.8865    4.0931    6.2002 C   0  0  0  0  0  0  0  0  0  0  0  0
   -5.5290    3.3063    5.1526 N   0  0  0  0  0  0  0  0  0  0  0  0
   -6.9524    3.2199    4.9364 C   0  0  0  0  0  0  0  0  0  0  0  0
   -7.0339    2.6977    3.5466 C   0  0  0  0  0  0  0  0  0  0  0  0
   -8.0618    2.7580    2.8215 O   0  0  0  0  0  0  0  0  0  0  0  0
   -5.7558    2.1537    3.2624 N   0  0  0  0  0  0  0  0  0  0  0  0
   -4.8956    2.4915    4.1647 C   0  0  0  0  0  0  0  0  0  0  0  0
   -3.5157    2.1424    4.2281 N   0  0  0  0  0  0  0  0  0  0  0  0
   -2.8703    1.5194    3.1200 C   0  0  0  0  0  0  0  0  0  0  0  0
   -3.5206    1.4289    2.0483 O   0  0  0  0  0  0  0  0  0  0  0  0
   -1.5310    1.0129    3.2167 N   0  0  0  0  0  0  0  0  0  0  0  0
   -0.8698    0.4849    2.0912 C   0  0  0  0  0  0  0  0  0  0  0  0
   -1.6258    0.0443    1.0265 C   0  0  0  0  0  0  0  0  0  0  0  0
   -0.9945   -0.4784   -0.0898 C   0  0  0  0  0  0  0  0  0  0  0  0
    0.3802   -0.5680   -0.1594 C   0  0  0  0  0  0  0  0  0  0  0  0
    1.1155   -0.1238    0.9111 C   0  0  0  0  0  0  0  0  0  0  0  0
    0.5157    0.4039    2.0418 C   0  0  0  0  0  0  0  0  0  0  0  0
   -1.9260   -1.0511   -1.4688 Cl  0  0  0  0  0  0  0  0  0  0  0  0
  1  2  1  0
  2  3  1  0
  3  4  1  0
  4  5  2  0
  4  6  1  0
  6  7  2  0
  7  8  1  0
  8  9  1  0
  9 10  2  0
  9 11  1  0
 11 12  1  0
 12 13  2  0
 13 14  1  0
 14 15  2  0
 15 16  1  0
 16 17  2  0
 14 18  1  0
  7  2  1  0
 17 12  1  0
M  END
$$$$
