
     RDKit          3D

 18 19  0  0  0  0  0  0  0  0999 V2000
   -4.2299    4.2726    5.8338 C   0  0  0  0  0  0  0  0  0  0  0  0
   -5.0941    3.4829    4.9627 N   0  0  0  0  0  0  0  0  0  0  0  0
   -6.5328    3.5752    4.9185 C   0  0  0  0  0  0  0  0  0  0  0  0
   -6.8547    2.9336    3.6162 C   0  0  0  0  0  0  0  0  0  0  0  0
   -7.9499    3.0645    3.0084 O   0  0  0  0  0  0  0  0  0  0  0  0
   -5.7021    2.1908    3.2558 N   0  0  0  0  0  0  0  0  0  0  0  0
   -4.6990    2.4933    4.0111 C   0  0  0  0  0  0  0  0  0  0  0  0
   -3.3776    1.9629    3.9598 N   0  0  0  0  0  0  0  0  0  0  0  0
   -2.8639    1.4025    2.7537 C   0  0  0  0  0  0  0  0  0  0  0  0
   -3.5614    1.5269    1.7155 O   0  0  0  0  0  0  0  0  0  0  0  0
   -1.6010    0.7217    2.7184 N   0  0  0  0  0  0  0  0  0  0  0  0
   -1.0553    0.2634    1.5039 C   0  0  0  0  0  0  0  0  0  0  0  0
   -1.9117   -0.0505    0.4708 C   0  0  0  0  0  0  0  0  0  0  0  0
   -1.3948   -0.5030   -0.7317 C   0  0  0  0  0  0  0  0  0  0  0  0
   -0.0356   -0.6469   -0.9185 C   0  0  0  0  0  0  0  0  0  0  0  0
    0.8007   -0.3291    0.1223 C   0  0  0  0  0  0  0  0  0  0  0  0
    0.3165    0.1258    1.3370 C   0  0  0  0  0  0  0  0  0  0  0  0
   -2.4566   -0.9137   -2.0737 Cl  0  0  0  0  0  0  0  0  0  0  0  0
  1  2  1  0
  2  3  1  0
  3  4  1  0
  4  5  2  0
  4  6  1  0
  6  7  2  0
  7  8  1  0
  8  9  1  0
  9 10  2  0
  9 11  1  0
 11 12  1  0
 12 13  2  0
 13 14  1  0
 14 15  2  0
 15 16  1  0
 16 17  2  0
 14 18  1  0
  7  2  1  0
 17 12  1  0
M  END
$$$$
