
     RDKit          3D

 18 19  0  0  0  0  0  0  0  0999 V2000
   -4.6612    4.5280    5.8873 C   0  0  0  0  0  0  0  0  0  0  0  0
   -5.4031    3.4902    5.1788 N   0  0  0  0  0  0  0  0  0  0  0  0
   -6.8082    3.2132    5.3496 C   0  0  0  0  0  0  0  0  0  0  0  0
   -7.1300    2.4271    4.1291 C   0  0  0  0  0  0  0  0  0  0  0  0
   -8.2949    2.2370    3.6901 O   0  0  0  0  0  0  0  0  0  0  0  0
   -5.8857    1.9772    3.6198 N   0  0  0  0  0  0  0  0  0  0  0  0
   -4.9007    2.5721    4.2064 C   0  0  0  0  0  0  0  0  0  0  0  0
   -3.5073    2.3903    3.9712 N   0  0  0  0  0  0  0  0  0  0  0  0
   -3.0501    1.6281    2.8564 C   0  0  0  0  0  0  0  0  0  0  0  0
   -3.9180    1.0394    2.1636 O   0  0  0  0  0  0  0  0  0  0  0  0
   -1.6555    1.5320    2.5317 N   0  0  0  0  0  0  0  0  0  0  0  0
   -1.1836    0.5576    1.6312 C   0  0  0  0  0  0  0  0  0  0  0  0
   -1.7497    0.4871    0.3767 C   0  0  0  0  0  0  0  0  0  0  0  0
   -1.2997   -0.4641   -0.5235 C   0  0  0  0  0  0  0  0  0  0  0  0
   -0.2929   -1.3464   -0.1903 C   0  0  0  0  0  0  0  0  0  0  0  0
    0.2579   -1.2602    1.0639 C   0  0  0  0  0  0  0  0  0  0  0  0
   -0.1688   -0.3211    1.9873 C   0  0  0  0  0  0  0  0  0  0  0  0
   -1.9978   -0.5848   -2.1344 Cl  0  0  0  0  0  0  0  0  0  0  0  0
  1  2  1  0
  2  3  1  0
  3  4  1  0
  4  5  2  0
  4  6  1  0
  6  7  2  0
  7  8  1  0
  8  9  1  0
  9 10  2  0
  9 11  1  0
 11 12  1  0
 12 13  2  0
 13 14  1  0
 14 15  2  0
 15 16  1  0
 16 17  2  0
 14 18  1  0
  7  2  1  0
 17 12  1  0
M  END
$$$$
