
     RDKit          3D

 18 19  0  0  0  0  0  0  0  0999 V2000
   -4.4369    3.9169    6.2099 C   0  0  0  0  0  0  0  0  0  0  0  0
   -5.0966    3.2129    5.1152 N   0  0  0  0  0  0  0  0  0  0  0  0
   -6.5115    2.9440    5.0364 C   0  0  0  0  0  0  0  0  0  0  0  0
   -6.6990    2.6373    3.5935 C   0  0  0  0  0  0  0  0  0  0  0  0
   -7.8098    2.6511    3.0003 O   0  0  0  0  0  0  0  0  0  0  0  0
   -5.4064    2.3463    3.0889 N   0  0  0  0  0  0  0  0  0  0  0  0
   -4.4911    2.6679    3.9416 C   0  0  0  0  0  0  0  0  0  0  0  0
   -3.0802    2.5288    3.8004 N   0  0  0  0  0  0  0  0  0  0  0  0
   -2.5228    1.8763    2.6619 C   0  0  0  0  0  0  0  0  0  0  0  0
   -3.1549    1.9628    1.5790 O   0  0  0  0  0  0  0  0  0  0  0  0
   -1.2891    1.1475    2.7413 N   0  0  0  0  0  0  0  0  0  0  0  0
   -0.6235    0.7149    1.5782 C   0  0  0  0  0  0  0  0  0  0  0  0
   -1.3757    0.3557    0.4807 C   0  0  0  0  0  0  0  0  0  0  0  0
   -0.7401   -0.0725   -0.6727 C   0  0  0  0  0  0  0  0  0  0  0  0
    0.6353   -0.1477   -0.7473 C   0  0  0  0  0  0  0  0  0  0  0  0
    1.3667    0.2144    0.3563 C   0  0  0  0  0  0  0  0  0  0  0  0
    0.7625    0.6467    1.5245 C   0  0  0  0  0  0  0  0  0  0  0  0
   -1.6666   -0.5395   -2.0942 Cl  0  0  0  0  0  0  0  0  0  0  0  0
  1  2  1  0
  2  3  1  0
  3  4  1  0
  4  5  2  0
  4  6  1  0
  6  7  2  0
  7  8  1  0
  8  9  1  0
  9 10  2  0
  9 11  1  0
 11 12  1  0
 12 13  2  0
 13 14  1  0
 14 15  2  0
 15 16  1  0
 16 17  2  0
 14 18  1  0
  7  2  1  0
 17 12  1  0
M  END
$$$$
