
     RDKit          3D

 18 19  0  0  0  0  0  0  0  0999 V2000
   -3.7505    4.4815    7.5608 C   0  0  0  0  0  0  0  0  0  0  0  0
   -4.5770    3.5016    6.8636 N   0  0  0  0  0  0  0  0  0  0  0  0
   -5.2479    2.3886    7.4892 C   0  0  0  0  0  0  0  0  0  0  0  0
   -6.2608    2.0106    6.4683 C   0  0  0  0  0  0  0  0  0  0  0  0
   -7.2755    1.3014    6.6993 O   0  0  0  0  0  0  0  0  0  0  0  0
   -5.8290    2.6062    5.2563 N   0  0  0  0  0  0  0  0  0  0  0  0
   -4.8760    3.4521    5.4675 C   0  0  0  0  0  0  0  0  0  0  0  0
   -4.1856    4.2457    4.5066 N   0  0  0  0  0  0  0  0  0  0  0  0
   -4.6987    4.4002    3.1854 C   0  0  0  0  0  0  0  0  0  0  0  0
   -5.5652    3.5746    2.8016 O   0  0  0  0  0  0  0  0  0  0  0  0
   -4.2485    5.4543    2.3218 N   0  0  0  0  0  0  0  0  0  0  0  0
   -4.7942    5.6233    1.0347 C   0  0  0  0  0  0  0  0  0  0  0  0
   -4.4330    4.7384    0.0419 C   0  0  0  0  0  0  0  0  0  0  0  0
   -4.9585    4.8875   -1.2306 C   0  0  0  0  0  0  0  0  0  0  0  0
   -5.8393    5.9069   -1.5272 C   0  0  0  0  0  0  0  0  0  0  0  0
   -6.1866    6.7778   -0.5249 C   0  0  0  0  0  0  0  0  0  0  0  0
   -5.6795    6.6567    0.7576 C   0  0  0  0  0  0  0  0  0  0  0  0
   -4.5211    3.7774   -2.5242 Cl  0  0  0  0  0  0  0  0  0  0  0  0
  1  2  1  0
  2  3  1  0
  3  4  1  0
  4  5  2  0
  4  6  1  0
  6  7  2  0
  7  8  1  0
  8  9  1  0
  9 10  2  0
  9 11  1  0
 11 12  1  0
 12 13  2  0
 13 14  1  0
 14 15  2  0
 15 16  1  0
 16 17  2  0
 14 18  1  0
  7  2  1  0
 17 12  1  0
M  END
$$$$
