
     RDKit          3D

 18 19  0  0  0  0  0  0  0  0999 V2000
   -4.5727    4.5161    6.0367 C   0  0  0  0  0  0  0  0  0  0  0  0
   -5.3372    3.5582    5.2446 N   0  0  0  0  0  0  0  0  0  0  0  0
   -6.7500    3.3054    5.3877 C   0  0  0  0  0  0  0  0  0  0  0  0
   -7.0852    2.6282    4.1070 C   0  0  0  0  0  0  0  0  0  0  0  0
   -8.2521    2.5045    3.6501 O   0  0  0  0  0  0  0  0  0  0  0  0
   -5.8500    2.1881    3.5676 N   0  0  0  0  0  0  0  0  0  0  0  0
   -4.8533    2.7080    4.2035 C   0  0  0  0  0  0  0  0  0  0  0  0
   -3.4638    2.5091    3.9593 N   0  0  0  0  0  0  0  0  0  0  0  0
   -3.0221    1.7777    2.8180 C   0  0  0  0  0  0  0  0  0  0  0  0
   -3.9015    1.2281    2.1077 O   0  0  0  0  0  0  0  0  0  0  0  0
   -1.6300    1.6687    2.4866 N   0  0  0  0  0  0  0  0  0  0  0  0
   -1.1859    0.7709    1.4967 C   0  0  0  0  0  0  0  0  0  0  0  0
   -1.8723    0.7102    0.3032 C   0  0  0  0  0  0  0  0  0  0  0  0
   -1.4515   -0.1662   -0.6831 C   0  0  0  0  0  0  0  0  0  0  0  0
   -0.3558   -0.9830   -0.4959 C   0  0  0  0  0  0  0  0  0  0  0  0
    0.3143   -0.9077    0.6995 C   0  0  0  0  0  0  0  0  0  0  0  0
   -0.0801   -0.0426    1.7059 C   0  0  0  0  0  0  0  0  0  0  0  0
   -2.3022   -0.2721   -2.2200 Cl  0  0  0  0  0  0  0  0  0  0  0  0
  1  2  1  0
  2  3  1  0
  3  4  1  0
  4  5  2  0
  4  6  1  0
  6  7  2  0
  7  8  1  0
  8  9  1  0
  9 10  2  0
  9 11  1  0
 11 12  1  0
 12 13  2  0
 13 14  1  0
 14 15  2  0
 15 16  1  0
 16 17  2  0
 14 18  1  0
  7  2  1  0
 17 12  1  0
M  END
$$$$
