
     RDKit          3D

 18 19  0  0  0  0  0  0  0  0999 V2000
   -4.4905    4.1119    6.2893 C   0  0  0  0  0  0  0  0  0  0  0  0
   -5.2288    3.3225    5.3090 N   0  0  0  0  0  0  0  0  0  0  0  0
   -6.6487    3.0722    5.3467 C   0  0  0  0  0  0  0  0  0  0  0  0
   -6.9343    2.6383    3.9534 C   0  0  0  0  0  0  0  0  0  0  0  0
   -8.0814    2.6172    3.4342 O   0  0  0  0  0  0  0  0  0  0  0  0
   -5.6811    2.2799    3.3956 N   0  0  0  0  0  0  0  0  0  0  0  0
   -4.7081    2.6620    4.1542 C   0  0  0  0  0  0  0  0  0  0  0  0
   -3.3112    2.4860    3.9358 N   0  0  0  0  0  0  0  0  0  0  0  0
   -2.8365    1.7569    2.8063 C   0  0  0  0  0  0  0  0  0  0  0  0
   -3.6641    1.4971    1.8966 O   0  0  0  0  0  0  0  0  0  0  0  0
   -1.4693    1.3328    2.7047 N   0  0  0  0  0  0  0  0  0  0  0  0
   -0.9937    0.6802    1.5511 C   0  0  0  0  0  0  0  0  0  0  0  0
   -1.8314    0.5672    0.4626 C   0  0  0  0  0  0  0  0  0  0  0  0
   -1.3827   -0.0711   -0.6815 C   0  0  0  0  0  0  0  0  0  0  0  0
   -0.1101   -0.5984   -0.7555 C   0  0  0  0  0  0  0  0  0  0  0  0
    0.7089   -0.4756    0.3390 C   0  0  0  0  0  0  0  0  0  0  0  0
    0.2913    0.1565    1.4978 C   0  0  0  0  0  0  0  0  0  0  0  0
   -2.4231   -0.2350   -2.0914 Cl  0  0  0  0  0  0  0  0  0  0  0  0
  1  2  1  0
  2  3  1  0
  3  4  1  0
  4  5  2  0
  4  6  1  0
  6  7  2  0
  7  8  1  0
  8  9  1  0
  9 10  2  0
  9 11  1  0
 11 12  1  0
 12 13  2  0
 13 14  1  0
 14 15  2  0
 15 16  1  0
 16 17  2  0
 14 18  1  0
  7  2  1  0
 17 12  1  0
M  END
$$$$
