
     RDKit          3D

 18 19  0  0  0  0  0  0  0  0999 V2000
   -4.6324    4.4959    6.1021 C   0  0  0  0  0  0  0  0  0  0  0  0
   -5.3675    3.5732    5.2432 N   0  0  0  0  0  0  0  0  0  0  0  0
   -6.7683    3.2562    5.3751 C   0  0  0  0  0  0  0  0  0  0  0  0
   -7.0894    2.6672    4.0480 C   0  0  0  0  0  0  0  0  0  0  0  0
   -8.2550    2.5344    3.5902 O   0  0  0  0  0  0  0  0  0  0  0  0
   -5.8436    2.3175    3.4686 N   0  0  0  0  0  0  0  0  0  0  0  0
   -4.8613    2.8247    4.1366 C   0  0  0  0  0  0  0  0  0  0  0  0
   -3.4676    2.6986    3.8691 N   0  0  0  0  0  0  0  0  0  0  0  0
   -3.0044    1.9159    2.7712 C   0  0  0  0  0  0  0  0  0  0  0  0
   -3.8718    1.3638    2.0482 O   0  0  0  0  0  0  0  0  0  0  0  0
   -1.6047    1.7598    2.4958 N   0  0  0  0  0  0  0  0  0  0  0  0
   -1.1530    0.8630    1.5086 C   0  0  0  0  0  0  0  0  0  0  0  0
   -1.8651    0.7598    0.3332 C   0  0  0  0  0  0  0  0  0  0  0  0
   -1.4374   -0.1165   -0.6502 C   0  0  0  0  0  0  0  0  0  0  0  0
   -0.3093   -0.8915   -0.4780 C   0  0  0  0  0  0  0  0  0  0  0  0
    0.3862   -0.7743    0.6994 C   0  0  0  0  0  0  0  0  0  0  0  0
   -0.0144    0.0919    1.7024 C   0  0  0  0  0  0  0  0  0  0  0  0
   -2.3204   -0.2758   -2.1641 Cl  0  0  0  0  0  0  0  0  0  0  0  0
  1  2  1  0
  2  3  1  0
  3  4  1  0
  4  5  2  0
  4  6  1  0
  6  7  2  0
  7  8  1  0
  8  9  1  0
  9 10  2  0
  9 11  1  0
 11 12  1  0
 12 13  2  0
 13 14  1  0
 14 15  2  0
 15 16  1  0
 16 17  2  0
 14 18  1  0
  7  2  1  0
 17 12  1  0
M  END
$$$$
