
     RDKit          3D

 18 19  0  0  0  0  0  0  0  0999 V2000
    1.4767   -0.1972    3.3405 C   0  0  0  0  0  0  0  0  0  0  0  0
    0.5041   -0.2285    2.2531 N   0  0  0  0  0  0  0  0  0  0  0  0
    0.7336   -0.8088    0.9528 C   0  0  0  0  0  0  0  0  0  0  0  0
   -0.6478   -0.9747    0.4281 C   0  0  0  0  0  0  0  0  0  0  0  0
   -0.9597   -1.7257   -0.5335 O   0  0  0  0  0  0  0  0  0  0  0  0
   -1.4673   -0.1357    1.2247 N   0  0  0  0  0  0  0  0  0  0  0  0
   -0.8260    0.2928    2.2607 C   0  0  0  0  0  0  0  0  0  0  0  0
   -1.3070    1.1525    3.2900 N   0  0  0  0  0  0  0  0  0  0  0  0
   -2.6899    1.4899    3.3704 C   0  0  0  0  0  0  0  0  0  0  0  0
   -3.4751    0.9014    2.5849 O   0  0  0  0  0  0  0  0  0  0  0  0
   -3.1740    2.4621    4.3085 N   0  0  0  0  0  0  0  0  0  0  0  0
   -4.5535    2.6962    4.4670 C   0  0  0  0  0  0  0  0  0  0  0  0
   -5.2755    3.1522    3.3853 C   0  0  0  0  0  0  0  0  0  0  0  0
   -6.6332    3.3886    3.5206 C   0  0  0  0  0  0  0  0  0  0  0  0
   -7.2815    3.1765    4.7197 C   0  0  0  0  0  0  0  0  0  0  0  0
   -6.5451    2.7222    5.7851 C   0  0  0  0  0  0  0  0  0  0  0  0
   -5.1865    2.4760    5.6833 C   0  0  0  0  0  0  0  0  0  0  0  0
   -7.5884    3.9712    2.1622 Cl  0  0  0  0  0  0  0  0  0  0  0  0
  1  2  1  0
  2  3  1  0
  3  4  1  0
  4  5  2  0
  4  6  1  0
  6  7  2  0
  7  8  1  0
  8  9  1  0
  9 10  2  0
  9 11  1  0
 11 12  1  0
 12 13  2  0
 13 14  1  0
 14 15  2  0
 15 16  1  0
 16 17  2  0
 14 18  1  0
  7  2  1  0
 17 12  1  0
M  END
$$$$
