
     RDKit          3D

 18 19  0  0  0  0  0  0  0  0999 V2000
   -4.2307    4.6992    5.7337 C   0  0  0  0  0  0  0  0  0  0  0  0
   -5.0511    3.7137    5.0373 N   0  0  0  0  0  0  0  0  0  0  0  0
   -6.4771    3.5634    5.1938 C   0  0  0  0  0  0  0  0  0  0  0  0
   -6.8508    2.7804    3.9862 C   0  0  0  0  0  0  0  0  0  0  0  0
   -8.0222    2.6820    3.5347 O   0  0  0  0  0  0  0  0  0  0  0  0
   -5.6440    2.2130    3.5047 N   0  0  0  0  0  0  0  0  0  0  0  0
   -4.6184    2.7335    4.0924 C   0  0  0  0  0  0  0  0  0  0  0  0
   -3.2433    2.4263    3.8812 N   0  0  0  0  0  0  0  0  0  0  0  0
   -2.8197    1.7597    2.6942 C   0  0  0  0  0  0  0  0  0  0  0  0
   -3.7136    1.3217    1.9269 O   0  0  0  0  0  0  0  0  0  0  0  0
   -1.4293    1.5914    2.3810 N   0  0  0  0  0  0  0  0  0  0  0  0
   -1.0152    0.7246    1.3515 C   0  0  0  0  0  0  0  0  0  0  0  0
   -1.7896    0.6296    0.2154 C   0  0  0  0  0  0  0  0  0  0  0  0
   -1.3997   -0.2172   -0.8085 C   0  0  0  0  0  0  0  0  0  0  0  0
   -0.2480   -0.9709   -0.7157 C   0  0  0  0  0  0  0  0  0  0  0  0
    0.5096   -0.8624    0.4236 C   0  0  0  0  0  0  0  0  0  0  0  0
    0.1480   -0.0254    1.4655 C   0  0  0  0  0  0  0  0  0  0  0  0
   -2.3624   -0.3652   -2.2742 Cl  0  0  0  0  0  0  0  0  0  0  0  0
  1  2  1  0
  2  3  1  0
  3  4  1  0
  4  5  2  0
  4  6  1  0
  6  7  2  0
  7  8  1  0
  8  9  1  0
  9 10  2  0
  9 11  1  0
 11 12  1  0
 12 13  2  0
 13 14  1  0
 14 15  2  0
 15 16  1  0
 16 17  2  0
 14 18  1  0
  7  2  1  0
 17 12  1  0
M  END
$$$$
