
     RDKit          3D

 18 19  0  0  0  0  0  0  0  0999 V2000
   -4.2520    3.8835    6.3467 C   0  0  0  0  0  0  0  0  0  0  0  0
   -5.0581    3.1862    5.3500 N   0  0  0  0  0  0  0  0  0  0  0  0
   -6.4982    3.1069    5.3571 C   0  0  0  0  0  0  0  0  0  0  0  0
   -6.8037    2.7080    3.9576 C   0  0  0  0  0  0  0  0  0  0  0  0
   -7.9338    2.8229    3.4141 O   0  0  0  0  0  0  0  0  0  0  0  0
   -5.5905    2.2020    3.4263 N   0  0  0  0  0  0  0  0  0  0  0  0
   -4.5952    2.4667    4.2059 C   0  0  0  0  0  0  0  0  0  0  0  0
   -3.2249    2.1252    4.0172 N   0  0  0  0  0  0  0  0  0  0  0  0
   -2.7989    1.4467    2.8378 C   0  0  0  0  0  0  0  0  0  0  0  0
   -3.4373    1.6721    1.7788 O   0  0  0  0  0  0  0  0  0  0  0  0
   -1.6861    0.5406    2.8513 N   0  0  0  0  0  0  0  0  0  0  0  0
   -1.0515    0.1499    1.6566 C   0  0  0  0  0  0  0  0  0  0  0  0
   -1.8303   -0.1247    0.5532 C   0  0  0  0  0  0  0  0  0  0  0  0
   -1.2254   -0.5105   -0.6312 C   0  0  0  0  0  0  0  0  0  0  0  0
    0.1456   -0.6264   -0.7310 C   0  0  0  0  0  0  0  0  0  0  0  0
    0.9038   -0.3486    0.3788 C   0  0  0  0  0  0  0  0  0  0  0  0
    0.3306    0.0396    1.5778 C   0  0  0  0  0  0  0  0  0  0  0  0
   -2.1865   -0.8695   -2.0611 Cl  0  0  0  0  0  0  0  0  0  0  0  0
  1  2  1  0
  2  3  1  0
  3  4  1  0
  4  5  2  0
  4  6  1  0
  6  7  2  0
  7  8  1  0
  8  9  1  0
  9 10  2  0
  9 11  1  0
 11 12  1  0
 12 13  2  0
 13 14  1  0
 14 15  2  0
 15 16  1  0
 16 17  2  0
 14 18  1  0
  7  2  1  0
 17 12  1  0
M  END
$$$$
