
     RDKit          3D

 18 19  0  0  0  0  0  0  0  0999 V2000
   -4.9392    4.2648    6.2235 C   0  0  0  0  0  0  0  0  0  0  0  0
   -5.5469    3.5178    5.1271 N   0  0  0  0  0  0  0  0  0  0  0  0
   -6.9646    3.4047    4.8874 C   0  0  0  0  0  0  0  0  0  0  0  0
   -7.0148    2.9553    3.4708 C   0  0  0  0  0  0  0  0  0  0  0  0
   -8.0351    3.0264    2.7361 O   0  0  0  0  0  0  0  0  0  0  0  0
   -5.7188    2.4619    3.1756 N   0  0  0  0  0  0  0  0  0  0  0  0
   -4.8793    2.7742    4.1061 C   0  0  0  0  0  0  0  0  0  0  0  0
   -3.4911    2.4597    4.1697 N   0  0  0  0  0  0  0  0  0  0  0  0
   -2.8527    1.7620    3.1028 C   0  0  0  0  0  0  0  0  0  0  0  0
   -3.4908    1.6427    2.0265 O   0  0  0  0  0  0  0  0  0  0  0  0
   -1.5336    1.2147    3.2444 N   0  0  0  0  0  0  0  0  0  0  0  0
   -0.8678    0.6286    2.1508 C   0  0  0  0  0  0  0  0  0  0  0  0
   -1.6147    0.1961    1.0764 C   0  0  0  0  0  0  0  0  0  0  0  0
   -0.9788   -0.3830   -0.0090 C   0  0  0  0  0  0  0  0  0  0  0  0
    0.3917   -0.5371   -0.0380 C   0  0  0  0  0  0  0  0  0  0  0  0
    1.1179   -0.1001    1.0416 C   0  0  0  0  0  0  0  0  0  0  0  0
    0.5132    0.4830    2.1421 C   0  0  0  0  0  0  0  0  0  0  0  0
   -1.8986   -0.9473   -1.3992 Cl  0  0  0  0  0  0  0  0  0  0  0  0
  1  2  1  0
  2  3  1  0
  3  4  1  0
  4  5  2  0
  4  6  1  0
  6  7  2  0
  7  8  1  0
  8  9  1  0
  9 10  2  0
  9 11  1  0
 11 12  1  0
 12 13  2  0
 13 14  1  0
 14 15  2  0
 15 16  1  0
 16 17  2  0
 14 18  1  0
  7  2  1  0
 17 12  1  0
M  END
$$$$
