
     RDKit          3D

 18 19  0  0  0  0  0  0  0  0999 V2000
   -5.0691    4.3459    6.0216 C   0  0  0  0  0  0  0  0  0  0  0  0
   -5.6855    3.3053    5.2051 N   0  0  0  0  0  0  0  0  0  0  0  0
   -7.0967    3.0098    5.1665 C   0  0  0  0  0  0  0  0  0  0  0  0
   -7.2261    2.2303    3.9068 C   0  0  0  0  0  0  0  0  0  0  0  0
   -8.3116    2.0298    3.3008 O   0  0  0  0  0  0  0  0  0  0  0  0
   -5.9147    1.8000    3.5820 N   0  0  0  0  0  0  0  0  0  0  0  0
   -5.0341    2.4017    4.3106 C   0  0  0  0  0  0  0  0  0  0  0  0
   -3.6190    2.2389    4.2806 N   0  0  0  0  0  0  0  0  0  0  0  0
   -2.9924    1.5034    3.2322 C   0  0  0  0  0  0  0  0  0  0  0  0
   -3.7334    0.8137    2.4871 O   0  0  0  0  0  0  0  0  0  0  0  0
   -1.5723    1.5438    3.0293 N   0  0  0  0  0  0  0  0  0  0  0  0
   -0.9266    0.5947    2.2137 C   0  0  0  0  0  0  0  0  0  0  0  0
   -1.4878    0.2787    0.9953 C   0  0  0  0  0  0  0  0  0  0  0  0
   -0.8682   -0.6523    0.1785 C   0  0  0  0  0  0  0  0  0  0  0  0
    0.3033   -1.2729    0.5597 C   0  0  0  0  0  0  0  0  0  0  0  0
    0.8464   -0.9448    1.7767 C   0  0  0  0  0  0  0  0  0  0  0  0
    0.2524   -0.0184    2.6169 C   0  0  0  0  0  0  0  0  0  0  0  0
   -1.5545   -1.0815   -1.3841 Cl  0  0  0  0  0  0  0  0  0  0  0  0
  1  2  1  0
  2  3  1  0
  3  4  1  0
  4  5  2  0
  4  6  1  0
  6  7  2  0
  7  8  1  0
  8  9  1  0
  9 10  2  0
  9 11  1  0
 11 12  1  0
 12 13  2  0
 13 14  1  0
 14 15  2  0
 15 16  1  0
 16 17  2  0
 14 18  1  0
  7  2  1  0
 17 12  1  0
M  END
$$$$
