
     RDKit          3D

 18 19  0  0  0  0  0  0  0  0999 V2000
   -4.6779    3.7237    6.4013 C   0  0  0  0  0  0  0  0  0  0  0  0
   -5.2950    3.0447    5.2666 N   0  0  0  0  0  0  0  0  0  0  0  0
   -6.7153    2.9170    5.0501 C   0  0  0  0  0  0  0  0  0  0  0  0
   -6.7889    2.5707    3.6059 C   0  0  0  0  0  0  0  0  0  0  0  0
   -7.8273    2.6717    2.9007 O   0  0  0  0  0  0  0  0  0  0  0  0
   -5.4900    2.1298    3.2474 N   0  0  0  0  0  0  0  0  0  0  0  0
   -4.6358    2.3927    4.1798 C   0  0  0  0  0  0  0  0  0  0  0  0
   -3.2402    2.1062    4.1900 N   0  0  0  0  0  0  0  0  0  0  0  0
   -2.6323    1.4059    3.1070 C   0  0  0  0  0  0  0  0  0  0  0  0
   -3.2015    1.4657    1.9880 O   0  0  0  0  0  0  0  0  0  0  0  0
   -1.4185    0.6601    3.2799 N   0  0  0  0  0  0  0  0  0  0  0  0
   -0.6760    0.2114    2.1707 C   0  0  0  0  0  0  0  0  0  0  0  0
   -1.3547   -0.2268    1.0542 C   0  0  0  0  0  0  0  0  0  0  0  0
   -0.6429   -0.6720   -0.0471 C   0  0  0  0  0  0  0  0  0  0  0  0
    0.7365   -0.6865   -0.0507 C   0  0  0  0  0  0  0  0  0  0  0  0
    1.3940   -0.2461    1.0707 C   0  0  0  0  0  0  0  0  0  0  0  0
    0.7126    0.2053    2.1881 C   0  0  0  0  0  0  0  0  0  0  0  0
   -1.4742   -1.2391   -1.4909 Cl  0  0  0  0  0  0  0  0  0  0  0  0
  1  2  1  0
  2  3  1  0
  3  4  1  0
  4  5  2  0
  4  6  1  0
  6  7  2  0
  7  8  1  0
  8  9  1  0
  9 10  2  0
  9 11  1  0
 11 12  1  0
 12 13  2  0
 13 14  1  0
 14 15  2  0
 15 16  1  0
 16 17  2  0
 14 18  1  0
  7  2  1  0
 17 12  1  0
M  END
$$$$
