
     RDKit          3D

 18 19  0  0  0  0  0  0  0  0999 V2000
   -4.1729    4.3314    6.1059 C   0  0  0  0  0  0  0  0  0  0  0  0
   -5.1137    3.4272    5.4527 N   0  0  0  0  0  0  0  0  0  0  0  0
   -6.5081    3.2928    5.7963 C   0  0  0  0  0  0  0  0  0  0  0  0
   -7.0714    2.6258    4.5926 C   0  0  0  0  0  0  0  0  0  0  0  0
   -8.2968    2.5909    4.3048 O   0  0  0  0  0  0  0  0  0  0  0  0
   -5.9624    2.0781    3.8995 N   0  0  0  0  0  0  0  0  0  0  0  0
   -4.8486    2.5245    4.3777 C   0  0  0  0  0  0  0  0  0  0  0  0
   -3.5270    2.2090    3.9492 N   0  0  0  0  0  0  0  0  0  0  0  0
   -3.2862    1.7138    2.6341 C   0  0  0  0  0  0  0  0  0  0  0  0
   -4.2505    1.1762    2.0333 O   0  0  0  0  0  0  0  0  0  0  0  0
   -1.9965    1.8213    2.0139 N   0  0  0  0  0  0  0  0  0  0  0  0
   -1.6604    1.0376    0.8933 C   0  0  0  0  0  0  0  0  0  0  0  0
   -0.5068    0.2847    0.9348 C   0  0  0  0  0  0  0  0  0  0  0  0
   -0.1587   -0.4927   -0.1571 C   0  0  0  0  0  0  0  0  0  0  0  0
   -0.9449   -0.5301   -1.2900 C   0  0  0  0  0  0  0  0  0  0  0  0
   -2.0897    0.2267   -1.3118 C   0  0  0  0  0  0  0  0  0  0  0  0
   -2.4663    1.0145   -0.2374 C   0  0  0  0  0  0  0  0  0  0  0  0
    1.3065   -1.4673   -0.1414 Cl  0  0  0  0  0  0  0  0  0  0  0  0
  1  2  1  0
  2  3  1  0
  3  4  1  0
  4  5  2  0
  4  6  1  0
  6  7  2  0
  7  8  1  0
  8  9  1  0
  9 10  2  0
  9 11  1  0
 11 12  1  0
 12 13  2  0
 13 14  1  0
 14 15  2  0
 15 16  1  0
 16 17  2  0
 14 18  1  0
  7  2  1  0
 17 12  1  0
M  END
$$$$
