
     RDKit          3D

 18 19  0  0  0  0  0  0  0  0999 V2000
   -4.9972    4.3990    6.2214 C   0  0  0  0  0  0  0  0  0  0  0  0
   -5.6777    3.4436    5.3533 N   0  0  0  0  0  0  0  0  0  0  0  0
   -7.0793    3.1111    5.4253 C   0  0  0  0  0  0  0  0  0  0  0  0
   -7.3275    2.4824    4.1008 C   0  0  0  0  0  0  0  0  0  0  0  0
   -8.4674    2.3214    3.5905 O   0  0  0  0  0  0  0  0  0  0  0  0
   -6.0504    2.1344    3.5927 N   0  0  0  0  0  0  0  0  0  0  0  0
   -5.1085    2.6728    4.2937 C   0  0  0  0  0  0  0  0  0  0  0  0
   -3.7019    2.5586    4.0981 N   0  0  0  0  0  0  0  0  0  0  0  0
   -3.1761    1.7687    3.0340 C   0  0  0  0  0  0  0  0  0  0  0  0
   -3.9985    1.1507    2.3119 O   0  0  0  0  0  0  0  0  0  0  0  0
   -1.7647    1.6777    2.7907 N   0  0  0  0  0  0  0  0  0  0  0  0
   -1.2415    0.7324    1.8877 C   0  0  0  0  0  0  0  0  0  0  0  0
   -1.7792    0.6599    0.6208 C   0  0  0  0  0  0  0  0  0  0  0  0
   -1.2787   -0.2631   -0.2821 C   0  0  0  0  0  0  0  0  0  0  0  0
   -0.2492   -1.1150    0.0605 C   0  0  0  0  0  0  0  0  0  0  0  0
    0.2728   -1.0274    1.3268 C   0  0  0  0  0  0  0  0  0  0  0  0
   -0.2046   -0.1160    2.2532 C   0  0  0  0  0  0  0  0  0  0  0  0
   -1.9395   -0.3853   -1.9086 Cl  0  0  0  0  0  0  0  0  0  0  0  0
  1  2  1  0
  2  3  1  0
  3  4  1  0
  4  5  2  0
  4  6  1  0
  6  7  2  0
  7  8  1  0
  8  9  1  0
  9 10  2  0
  9 11  1  0
 11 12  1  0
 12 13  2  0
 13 14  1  0
 14 15  2  0
 15 16  1  0
 16 17  2  0
 14 18  1  0
  7  2  1  0
 17 12  1  0
M  END
$$$$
