
     RDKit          3D

 18 19  0  0  0  0  0  0  0  0999 V2000
   -4.5766    4.3027    6.2225 C   0  0  0  0  0  0  0  0  0  0  0  0
   -5.3448    3.3582    5.4181 N   0  0  0  0  0  0  0  0  0  0  0  0
   -6.7559    3.0994    5.5668 C   0  0  0  0  0  0  0  0  0  0  0  0
   -7.0992    2.4458    4.2760 C   0  0  0  0  0  0  0  0  0  0  0  0
   -8.2692    2.3281    3.8255 O   0  0  0  0  0  0  0  0  0  0  0  0
   -5.8671    2.0190    3.7192 N   0  0  0  0  0  0  0  0  0  0  0  0
   -4.8668    2.5291    4.3574 C   0  0  0  0  0  0  0  0  0  0  0  0
   -3.4787    2.3381    4.0992 N   0  0  0  0  0  0  0  0  0  0  0  0
   -3.0448    1.5857    2.9686 C   0  0  0  0  0  0  0  0  0  0  0  0
   -3.9242    0.9810    2.3047 O   0  0  0  0  0  0  0  0  0  0  0  0
   -1.6604    1.5167    2.5969 N   0  0  0  0  0  0  0  0  0  0  0  0
   -1.2081    0.5817    1.6460 C   0  0  0  0  0  0  0  0  0  0  0  0
   -1.8416    0.5226    0.4235 C   0  0  0  0  0  0  0  0  0  0  0  0
   -1.4119   -0.3900   -0.5252 C   0  0  0  0  0  0  0  0  0  0  0  0
   -0.3592   -1.2448   -0.2721 C   0  0  0  0  0  0  0  0  0  0  0  0
    0.2586   -1.1705    0.9512 C   0  0  0  0  0  0  0  0  0  0  0  0
   -0.1462   -0.2697    1.9215 C   0  0  0  0  0  0  0  0  0  0  0  0
   -2.1957   -0.4951   -2.0974 Cl  0  0  0  0  0  0  0  0  0  0  0  0
  1  2  1  0
  2  3  1  0
  3  4  1  0
  4  5  2  0
  4  6  1  0
  6  7  2  0
  7  8  1  0
  8  9  1  0
  9 10  2  0
  9 11  1  0
 11 12  1  0
 12 13  2  0
 13 14  1  0
 14 15  2  0
 15 16  1  0
 16 17  2  0
 14 18  1  0
  7  2  1  0
 17 12  1  0
M  END
$$$$
