
     RDKit          3D

 18 19  0  0  0  0  0  0  0  0999 V2000
   -7.1027    2.2697    5.3787 C   0  0  0  0  0  0  0  0  0  0  0  0
   -5.9697    3.1204    5.0295 N   0  0  0  0  0  0  0  0  0  0  0  0
   -5.6944    4.4124    5.6085 C   0  0  0  0  0  0  0  0  0  0  0  0
   -4.2636    4.6204    5.2613 C   0  0  0  0  0  0  0  0  0  0  0  0
   -3.5085    5.4581    5.8216 O   0  0  0  0  0  0  0  0  0  0  0  0
   -3.9825    3.7048    4.2159 N   0  0  0  0  0  0  0  0  0  0  0  0
   -4.9412    2.8508    4.0754 C   0  0  0  0  0  0  0  0  0  0  0  0
   -5.0263    1.7818    3.1373 N   0  0  0  0  0  0  0  0  0  0  0  0
   -3.9525    1.5142    2.2384 C   0  0  0  0  0  0  0  0  0  0  0  0
   -2.9621    2.2873    2.2745 O   0  0  0  0  0  0  0  0  0  0  0  0
   -3.9935    0.4079    1.3253 N   0  0  0  0  0  0  0  0  0  0  0  0
   -3.0140    0.2529    0.3256 C   0  0  0  0  0  0  0  0  0  0  0  0
   -1.7356   -0.0994    0.7013 C   0  0  0  0  0  0  0  0  0  0  0  0
   -0.7579   -0.2566   -0.2667 C   0  0  0  0  0  0  0  0  0  0  0  0
   -1.0369   -0.0676   -1.6044 C   0  0  0  0  0  0  0  0  0  0  0  0
   -2.3159    0.2829   -1.9583 C   0  0  0  0  0  0  0  0  0  0  0  0
   -3.3163    0.4481   -1.0157 C   0  0  0  0  0  0  0  0  0  0  0  0
    0.8856   -0.7058    0.1742 Cl  0  0  0  0  0  0  0  0  0  0  0  0
  1  2  1  0
  2  3  1  0
  3  4  1  0
  4  5  2  0
  4  6  1  0
  6  7  2  0
  7  8  1  0
  8  9  1  0
  9 10  2  0
  9 11  1  0
 11 12  1  0
 12 13  2  0
 13 14  1  0
 14 15  2  0
 15 16  1  0
 16 17  2  0
 14 18  1  0
  7  2  1  0
 17 12  1  0
M  END
$$$$
