
     RDKit          3D

 18 19  0  0  0  0  0  0  0  0999 V2000
   -4.5964    4.1875    6.2364 C   0  0  0  0  0  0  0  0  0  0  0  0
   -5.3066    3.4174    5.2205 N   0  0  0  0  0  0  0  0  0  0  0  0
   -6.7344    3.2171    5.1805 C   0  0  0  0  0  0  0  0  0  0  0  0
   -6.9574    2.7836    3.7756 C   0  0  0  0  0  0  0  0  0  0  0  0
   -8.0740    2.7989    3.1936 O   0  0  0  0  0  0  0  0  0  0  0  0
   -5.6886    2.3778    3.2902 N   0  0  0  0  0  0  0  0  0  0  0  0
   -4.7462    2.7311    4.0998 C   0  0  0  0  0  0  0  0  0  0  0  0
   -3.3464    2.5051    3.9604 N   0  0  0  0  0  0  0  0  0  0  0  0
   -2.8302    1.8086    2.8285 C   0  0  0  0  0  0  0  0  0  0  0  0
   -3.4587    1.9191    1.7457 O   0  0  0  0  0  0  0  0  0  0  0  0
   -1.6403    1.0109    2.9143 N   0  0  0  0  0  0  0  0  0  0  0  0
   -0.9789    0.5638    1.7543 C   0  0  0  0  0  0  0  0  0  0  0  0
   -1.7329    0.2344    0.6487 C   0  0  0  0  0  0  0  0  0  0  0  0
   -1.1014   -0.2074   -0.5019 C   0  0  0  0  0  0  0  0  0  0  0  0
    0.2715   -0.3253   -0.5657 C   0  0  0  0  0  0  0  0  0  0  0  0
    1.0047    0.0077    0.5458 C   0  0  0  0  0  0  0  0  0  0  0  0
    0.4046    0.4524    1.7115 C   0  0  0  0  0  0  0  0  0  0  0  0
   -2.0303   -0.6373   -1.9336 Cl  0  0  0  0  0  0  0  0  0  0  0  0
  1  2  1  0
  2  3  1  0
  3  4  1  0
  4  5  2  0
  4  6  1  0
  6  7  2  0
  7  8  1  0
  8  9  1  0
  9 10  2  0
  9 11  1  0
 11 12  1  0
 12 13  2  0
 13 14  1  0
 14 15  2  0
 15 16  1  0
 16 17  2  0
 14 18  1  0
  7  2  1  0
 17 12  1  0
M  END
$$$$
