
     RDKit          3D

 18 19  0  0  0  0  0  0  0  0999 V2000
  -10.4650   -1.0612    7.5725 C   0  0  0  0  0  0  0  0  0  0  0  0
  -10.1719   -1.1737    6.1474 N   0  0  0  0  0  0  0  0  0  0  0  0
  -10.6467   -2.2276    5.2847 C   0  0  0  0  0  0  0  0  0  0  0  0
  -10.4565   -1.6428    3.9308 C   0  0  0  0  0  0  0  0  0  0  0  0
  -11.0170   -2.0670    2.8859 O   0  0  0  0  0  0  0  0  0  0  0  0
   -9.5509   -0.5650    4.0989 N   0  0  0  0  0  0  0  0  0  0  0  0
   -9.3819   -0.2904    5.3496 C   0  0  0  0  0  0  0  0  0  0  0  0
   -8.5532    0.7207    5.9162 N   0  0  0  0  0  0  0  0  0  0  0  0
   -7.6740    1.4865    5.0957 C   0  0  0  0  0  0  0  0  0  0  0  0
   -7.8541    1.4376    3.8527 O   0  0  0  0  0  0  0  0  0  0  0  0
   -6.6224    2.2840    5.6592 N   0  0  0  0  0  0  0  0  0  0  0  0
   -5.8510    3.1446    4.8547 C   0  0  0  0  0  0  0  0  0  0  0  0
   -5.7001    2.8423    3.5186 C   0  0  0  0  0  0  0  0  0  0  0  0
   -4.9453    3.6759    2.7105 C   0  0  0  0  0  0  0  0  0  0  0  0
   -4.3387    4.8071    3.2160 C   0  0  0  0  0  0  0  0  0  0  0  0
   -4.5009    5.0909    4.5490 C   0  0  0  0  0  0  0  0  0  0  0  0
   -5.2489    4.2785    5.3841 C   0  0  0  0  0  0  0  0  0  0  0  0
   -4.7298    3.3230    0.9999 Cl  0  0  0  0  0  0  0  0  0  0  0  0
  1  2  1  0
  2  3  1  0
  3  4  1  0
  4  5  2  0
  4  6  1  0
  6  7  2  0
  7  8  1  0
  8  9  1  0
  9 10  2  0
  9 11  1  0
 11 12  1  0
 12 13  2  0
 13 14  1  0
 14 15  2  0
 15 16  1  0
 16 17  2  0
 14 18  1  0
  7  2  1  0
 17 12  1  0
M  END
$$$$
