
     RDKit          3D

 18 19  0  0  0  0  0  0  0  0999 V2000
   -4.4639    4.5215    5.9512 C   0  0  0  0  0  0  0  0  0  0  0  0
   -5.2251    3.5419    5.1828 N   0  0  0  0  0  0  0  0  0  0  0  0
   -6.6317    3.2699    5.3497 C   0  0  0  0  0  0  0  0  0  0  0  0
   -6.9750    2.5710    4.0829 C   0  0  0  0  0  0  0  0  0  0  0  0
   -8.1464    2.4238    3.6447 O   0  0  0  0  0  0  0  0  0  0  0  0
   -5.7412    2.1423    3.5314 N   0  0  0  0  0  0  0  0  0  0  0  0
   -4.7434    2.6854    4.1459 C   0  0  0  0  0  0  0  0  0  0  0  0
   -3.3547    2.5041    3.8841 N   0  0  0  0  0  0  0  0  0  0  0  0
   -2.9184    1.7583    2.7500 C   0  0  0  0  0  0  0  0  0  0  0  0
   -3.8007    1.1938    2.0552 O   0  0  0  0  0  0  0  0  0  0  0  0
   -1.5286    1.6517    2.4087 N   0  0  0  0  0  0  0  0  0  0  0  0
   -1.0805    0.7018    1.4707 C   0  0  0  0  0  0  0  0  0  0  0  0
   -1.7415    0.5996    0.2658 C   0  0  0  0  0  0  0  0  0  0  0  0
   -1.3164   -0.3284   -0.6701 C   0  0  0  0  0  0  0  0  0  0  0  0
   -0.2413   -1.1561   -0.4214 C   0  0  0  0  0  0  0  0  0  0  0  0
    0.4037   -1.0390    0.7845 C   0  0  0  0  0  0  0  0  0  0  0  0
    0.0042   -0.1219    1.7416 C   0  0  0  0  0  0  0  0  0  0  0  0
   -2.1350   -0.4882   -2.2198 Cl  0  0  0  0  0  0  0  0  0  0  0  0
  1  2  1  0
  2  3  1  0
  3  4  1  0
  4  5  2  0
  4  6  1  0
  6  7  2  0
  7  8  1  0
  8  9  1  0
  9 10  2  0
  9 11  1  0
 11 12  1  0
 12 13  2  0
 13 14  1  0
 14 15  2  0
 15 16  1  0
 16 17  2  0
 14 18  1  0
  7  2  1  0
 17 12  1  0
M  END
$$$$
