
     RDKit          3D

 18 19  0  0  0  0  0  0  0  0999 V2000
   -5.9514    2.2827    6.1881 C   0  0  0  0  0  0  0  0  0  0  0  0
   -5.7381    3.2572    5.1231 N   0  0  0  0  0  0  0  0  0  0  0  0
   -6.2638    4.6003    5.1116 C   0  0  0  0  0  0  0  0  0  0  0  0
   -5.4134    5.2679    4.0907 C   0  0  0  0  0  0  0  0  0  0  0  0
   -5.2946    6.5155    3.9673 O   0  0  0  0  0  0  0  0  0  0  0  0
   -4.8129    4.2228    3.3443 N   0  0  0  0  0  0  0  0  0  0  0  0
   -4.9901    3.0797    3.9190 C   0  0  0  0  0  0  0  0  0  0  0  0
   -4.5386    1.8025    3.4777 N   0  0  0  0  0  0  0  0  0  0  0  0
   -3.6482    1.6873    2.3702 C   0  0  0  0  0  0  0  0  0  0  0  0
   -3.1567    2.7490    1.9107 O   0  0  0  0  0  0  0  0  0  0  0  0
   -3.3211    0.4129    1.7970 N   0  0  0  0  0  0  0  0  0  0  0  0
   -2.5021    0.3172    0.6556 C   0  0  0  0  0  0  0  0  0  0  0  0
   -1.1353    0.2660    0.8247 C   0  0  0  0  0  0  0  0  0  0  0  0
   -0.3125    0.1718   -0.2852 C   0  0  0  0  0  0  0  0  0  0  0  0
   -0.8335    0.1280   -1.5617 C   0  0  0  0  0  0  0  0  0  0  0  0
   -2.1970    0.1802   -1.7093 C   0  0  0  0  0  0  0  0  0  0  0  0
   -3.0474    0.2744   -0.6209 C   0  0  0  0  0  0  0  0  0  0  0  0
    1.4372    0.1042   -0.1092 Cl  0  0  0  0  0  0  0  0  0  0  0  0
  1  2  1  0
  2  3  1  0
  3  4  1  0
  4  5  2  0
  4  6  1  0
  6  7  2  0
  7  8  1  0
  8  9  1  0
  9 10  2  0
  9 11  1  0
 11 12  1  0
 12 13  2  0
 13 14  1  0
 14 15  2  0
 15 16  1  0
 16 17  2  0
 14 18  1  0
  7  2  1  0
 17 12  1  0
M  END
$$$$
