
     RDKit          3D

 17 18  0  0  0  0  0  0  0  0999 V2000
   -8.2132    1.8299   11.9178 C   0  0  0  0  0  0  0  0  0  0  0  0
   -6.8281    1.4244   12.4385 C   0  0  0  0  0  0  0  0  0  0  0  0
   -5.7453    1.9870   11.5569 C   0  0  0  0  0  0  0  0  0  0  0  0
   -4.4058    1.6371   12.0779 C   0  0  0  0  0  0  0  0  0  0  0  0
   -3.7120    2.4828   12.8987 C   0  0  0  0  0  0  0  0  0  0  0  0
   -2.4693    2.0849   13.4091 C   0  0  0  0  0  0  0  0  0  0  0  0
   -1.9232    0.8672   13.1079 C   0  0  0  0  0  0  0  0  0  0  0  0
   -2.6312    0.0247   12.2783 C   0  0  0  0  0  0  0  0  0  0  0  0
   -3.8352    0.4016   11.7805 C   0  0  0  0  0  0  0  0  0  0  0  0
   -2.0878   -1.1990   11.9721 F   0  0  0  0  0  0  0  0  0  0  0  0
   -4.1725    3.8404   13.2452 C   0  0  0  0  0  0  0  0  0  0  0  0
   -3.1479    4.8753   12.8633 C   0  0  0  0  0  0  0  0  0  0  0  0
   -2.7942    5.1791   11.6064 N   0  0  0  0  0  0  0  0  0  0  0  0
   -1.8513    6.1501   11.6148 C   0  0  0  0  0  0  0  0  0  0  0  0
   -1.6278    6.4442   12.9529 C   0  0  0  0  0  0  0  0  0  0  0  0
   -2.4328    5.6510   13.6937 N   0  0  0  0  0  0  0  0  0  0  0  0
   -4.3784    3.8749   14.6362 O   0  0  0  0  0  0  0  0  0  0  0  0
  1  2  1  0
  2  3  1  0
  3  4  1  0
  4  5  2  0
  5  6  1  0
  6  7  2  0
  7  8  1  0
  8  9  2  0
  8 10  1  0
  5 11  1  0
 11 12  1  0
 12 13  2  0
 13 14  1  0
 14 15  2  0
 15 16  1  0
 11 17  1  0
  9  4  1  0
 16 12  1  0
M  END
$$$$
