
     RDKit          3D

 17 18  0  0  0  0  0  0  0  0999 V2000
   -7.5834    0.5544   13.7039 C   0  0  0  0  0  0  0  0  0  0  0  0
   -6.3814    0.7862   12.7790 C   0  0  0  0  0  0  0  0  0  0  0  0
   -5.1646    1.1699   13.5781 C   0  0  0  0  0  0  0  0  0  0  0  0
   -4.0265    1.4854   12.6874 C   0  0  0  0  0  0  0  0  0  0  0  0
   -3.6371    2.7749   12.4504 C   0  0  0  0  0  0  0  0  0  0  0  0
   -2.5206    3.0214   11.6408 C   0  0  0  0  0  0  0  0  0  0  0  0
   -1.8028    2.0040   11.0738 C   0  0  0  0  0  0  0  0  0  0  0  0
   -2.2063    0.7091   11.3186 C   0  0  0  0  0  0  0  0  0  0  0  0
   -3.2855    0.4614   12.1019 C   0  0  0  0  0  0  0  0  0  0  0  0
   -1.4898   -0.3166   10.7519 F   0  0  0  0  0  0  0  0  0  0  0  0
   -4.3663    3.9517   12.9589 C   0  0  0  0  0  0  0  0  0  0  0  0
   -4.9556    4.7548   11.8300 C   0  0  0  0  0  0  0  0  0  0  0  0
   -5.5866    4.2372   10.7665 N   0  0  0  0  0  0  0  0  0  0  0  0
   -5.9934    5.2314    9.9430 C   0  0  0  0  0  0  0  0  0  0  0  0
   -5.5823    6.4112   10.5479 C   0  0  0  0  0  0  0  0  0  0  0  0
   -4.9509    6.0910   11.6989 N   0  0  0  0  0  0  0  0  0  0  0  0
   -3.4467    4.7446   13.6687 O   0  0  0  0  0  0  0  0  0  0  0  0
  1  2  1  0
  2  3  1  0
  3  4  1  0
  4  5  2  0
  5  6  1  0
  6  7  2  0
  7  8  1  0
  8  9  2  0
  8 10  1  0
  5 11  1  0
 11 12  1  0
 12 13  2  0
 13 14  1  0
 14 15  2  0
 15 16  1  0
 11 17  1  0
  9  4  1  0
 16 12  1  0
M  END
$$$$
