
     RDKit          3D

 17 18  0  0  0  0  0  0  0  0999 V2000
   -6.6664   -0.1051   12.6805 C   0  0  0  0  0  0  0  0  0  0  0  0
   -5.7960    0.7454   11.7462 C   0  0  0  0  0  0  0  0  0  0  0  0
   -5.4353    2.0517   12.4017 C   0  0  0  0  0  0  0  0  0  0  0  0
   -4.5294    2.8421   11.5397 C   0  0  0  0  0  0  0  0  0  0  0  0
   -3.7632    3.8564   12.0441 C   0  0  0  0  0  0  0  0  0  0  0  0
   -2.8815    4.5421   11.1983 C   0  0  0  0  0  0  0  0  0  0  0  0
   -2.7636    4.2270    9.8722 C   0  0  0  0  0  0  0  0  0  0  0  0
   -3.5425    3.2042    9.3755 C   0  0  0  0  0  0  0  0  0  0  0  0
   -4.3980    2.5347   10.1875 C   0  0  0  0  0  0  0  0  0  0  0  0
   -3.4287    2.8835    8.0448 F   0  0  0  0  0  0  0  0  0  0  0  0
   -3.8469    4.3225   13.4408 C   0  0  0  0  0  0  0  0  0  0  0  0
   -3.2950    5.7161   13.5822 C   0  0  0  0  0  0  0  0  0  0  0  0
   -3.4536    6.6999   12.6855 N   0  0  0  0  0  0  0  0  0  0  0  0
   -2.8344    7.8228   13.1189 C   0  0  0  0  0  0  0  0  0  0  0  0
   -2.2732    7.4922   14.3447 C   0  0  0  0  0  0  0  0  0  0  0  0
   -2.5698    6.1995   14.6034 N   0  0  0  0  0  0  0  0  0  0  0  0
   -3.0905    3.4361   14.2284 O   0  0  0  0  0  0  0  0  0  0  0  0
  1  2  1  0
  2  3  1  0
  3  4  1  0
  4  5  2  0
  5  6  1  0
  6  7  2  0
  7  8  1  0
  8  9  2  0
  8 10  1  0
  5 11  1  0
 11 12  1  0
 12 13  2  0
 13 14  1  0
 14 15  2  0
 15 16  1  0
 11 17  1  0
  9  4  1  0
 16 12  1  0
M  END
$$$$
