
     RDKit          3D

 17 18  0  0  0  0  0  0  0  0999 V2000
   -8.6113    1.8796   13.4707 C   0  0  0  0  0  0  0  0  0  0  0  0
   -7.1548    1.4045   13.3876 C   0  0  0  0  0  0  0  0  0  0  0  0
   -6.4319    2.1063   12.2690 C   0  0  0  0  0  0  0  0  0  0  0  0
   -5.0019    1.7281   12.2460 C   0  0  0  0  0  0  0  0  0  0  0  0
   -4.0429    2.5135   12.8237 C   0  0  0  0  0  0  0  0  0  0  0  0
   -2.7082    2.0876   12.8220 C   0  0  0  0  0  0  0  0  0  0  0  0
   -2.3311    0.9014   12.2540 C   0  0  0  0  0  0  0  0  0  0  0  0
   -3.3065    0.1199   11.6733 C   0  0  0  0  0  0  0  0  0  0  0  0
   -4.6011    0.5242   11.6713 C   0  0  0  0  0  0  0  0  0  0  0  0
   -2.9339   -1.0719   11.1012 F   0  0  0  0  0  0  0  0  0  0  0  0
   -4.3210    3.8363   13.4137 C   0  0  0  0  0  0  0  0  0  0  0  0
   -3.4180    4.8911   12.8317 C   0  0  0  0  0  0  0  0  0  0  0  0
   -2.5824    5.6635   13.5405 N   0  0  0  0  0  0  0  0  0  0  0  0
   -1.9177    6.5036   12.7132 C   0  0  0  0  0  0  0  0  0  0  0  0
   -2.3818    6.2178   11.4366 C   0  0  0  0  0  0  0  0  0  0  0  0
   -3.2974    5.2292   11.5380 N   0  0  0  0  0  0  0  0  0  0  0  0
   -4.0955    3.7375   14.7985 O   0  0  0  0  0  0  0  0  0  0  0  0
  1  2  1  0
  2  3  1  0
  3  4  1  0
  4  5  2  0
  5  6  1  0
  6  7  2  0
  7  8  1  0
  8  9  2  0
  8 10  1  0
  5 11  1  0
 11 12  1  0
 12 13  2  0
 13 14  1  0
 14 15  2  0
 15 16  1  0
 11 17  1  0
  9  4  1  0
 16 12  1  0
M  END
$$$$
