
     RDKit          3D

 17 18  0  0  0  0  0  0  0  0999 V2000
   -2.6152    4.4566   11.2858 C   0  0  0  0  0  0  0  0  0  0  0  0
   -1.9752    3.1034   10.9490 C   0  0  0  0  0  0  0  0  0  0  0  0
   -1.7618    2.2927   12.1995 C   0  0  0  0  0  0  0  0  0  0  0  0
   -1.0637    1.0249   11.8935 C   0  0  0  0  0  0  0  0  0  0  0  0
   -0.5911    0.2091   12.8841 C   0  0  0  0  0  0  0  0  0  0  0  0
    0.0170   -1.0070   12.5460 C   0  0  0  0  0  0  0  0  0  0  0  0
    0.1555   -1.4060   11.2447 C   0  0  0  0  0  0  0  0  0  0  0  0
   -0.3230   -0.5743   10.2555 C   0  0  0  0  0  0  0  0  0  0  0  0
   -0.9139    0.6042   10.5740 C   0  0  0  0  0  0  0  0  0  0  0  0
   -0.1866   -0.9695    8.9472 F   0  0  0  0  0  0  0  0  0  0  0  0
   -0.6318    0.5600   14.3160 C   0  0  0  0  0  0  0  0  0  0  0  0
    0.7514    0.5780   14.9102 C   0  0  0  0  0  0  0  0  0  0  0  0
    1.3196   -0.4444   15.5653 N   0  0  0  0  0  0  0  0  0  0  0  0
    2.5650   -0.0988   15.9676 C   0  0  0  0  0  0  0  0  0  0  0  0
    2.7528    1.2045   15.5284 C   0  0  0  0  0  0  0  0  0  0  0  0
    1.6295    1.5934   14.8857 N   0  0  0  0  0  0  0  0  0  0  0  0
   -1.4099   -0.4135   14.9680 O   0  0  0  0  0  0  0  0  0  0  0  0
  1  2  1  0
  2  3  1  0
  3  4  1  0
  4  5  2  0
  5  6  1  0
  6  7  2  0
  7  8  1  0
  8  9  2  0
  8 10  1  0
  5 11  1  0
 11 12  1  0
 12 13  2  0
 13 14  1  0
 14 15  2  0
 15 16  1  0
 11 17  1  0
  9  4  1  0
 16 12  1  0
M  END
$$$$
