
     RDKit          3D

 17 18  0  0  0  0  0  0  0  0999 V2000
   -2.2224    7.0323   13.6066 C   0  0  0  0  0  0  0  0  0  0  0  0
   -2.3166    5.9705   12.5030 C   0  0  0  0  0  0  0  0  0  0  0  0
   -3.7406    5.8116   12.0411 C   0  0  0  0  0  0  0  0  0  0  0  0
   -3.8464    4.7550   11.0112 C   0  0  0  0  0  0  0  0  0  0  0  0
   -4.2838    3.4960   11.3176 C   0  0  0  0  0  0  0  0  0  0  0  0
   -4.4168    2.5439   10.2984 C   0  0  0  0  0  0  0  0  0  0  0  0
   -4.1186    2.8366    8.9956 C   0  0  0  0  0  0  0  0  0  0  0  0
   -3.6770    4.1082    8.7000 C   0  0  0  0  0  0  0  0  0  0  0  0
   -3.5462    5.0362    9.6804 C   0  0  0  0  0  0  0  0  0  0  0  0
   -3.3758    4.4079    7.3938 F   0  0  0  0  0  0  0  0  0  0  0  0
   -4.5788    3.0488   12.6917 C   0  0  0  0  0  0  0  0  0  0  0  0
   -4.3301    1.5721   12.8474 C   0  0  0  0  0  0  0  0  0  0  0  0
   -5.2591    0.6685   13.1904 N   0  0  0  0  0  0  0  0  0  0  0  0
   -4.7053   -0.5656   13.2402 C   0  0  0  0  0  0  0  0  0  0  0  0
   -3.3689   -0.3906   12.9082 C   0  0  0  0  0  0  0  0  0  0  0  0
   -3.1669    0.9246   12.6733 N   0  0  0  0  0  0  0  0  0  0  0  0
   -5.9344    3.3256   12.9445 O   0  0  0  0  0  0  0  0  0  0  0  0
  1  2  1  0
  2  3  1  0
  3  4  1  0
  4  5  2  0
  5  6  1  0
  6  7  2  0
  7  8  1  0
  8  9  2  0
  8 10  1  0
  5 11  1  0
 11 12  1  0
 12 13  2  0
 13 14  1  0
 14 15  2  0
 15 16  1  0
 11 17  1  0
  9  4  1  0
 16 12  1  0
M  END
$$$$
