
     RDKit          3D

 17 18  0  0  0  0  0  0  0  0999 V2000
   -8.1536    1.3114   13.3617 C   0  0  0  0  0  0  0  0  0  0  0  0
   -6.6253    1.1822   13.3996 C   0  0  0  0  0  0  0  0  0  0  0  0
   -6.0038    1.9021   12.2326 C   0  0  0  0  0  0  0  0  0  0  0  0
   -4.5301    1.7766   12.2593 C   0  0  0  0  0  0  0  0  0  0  0  0
   -3.7239    2.8468   12.5332 C   0  0  0  0  0  0  0  0  0  0  0  0
   -2.3360    2.6670   12.5988 C   0  0  0  0  0  0  0  0  0  0  0  0
   -1.7573    1.4443   12.3939 C   0  0  0  0  0  0  0  0  0  0  0  0
   -2.5803    0.3741   12.1168 C   0  0  0  0  0  0  0  0  0  0  0  0
   -3.9249    0.5391   12.0523 C   0  0  0  0  0  0  0  0  0  0  0  0
   -2.0051   -0.8558   11.9098 F   0  0  0  0  0  0  0  0  0  0  0  0
   -4.2286    4.2207   12.7139 C   0  0  0  0  0  0  0  0  0  0  0  0
   -3.1024    5.2198   12.6950 C   0  0  0  0  0  0  0  0  0  0  0  0
   -2.8302    6.0515   11.6795 N   0  0  0  0  0  0  0  0  0  0  0  0
   -1.7563    6.8165   11.9856 C   0  0  0  0  0  0  0  0  0  0  0  0
   -1.3633    6.4199   13.2565 C   0  0  0  0  0  0  0  0  0  0  0  0
   -2.2026    5.4433   13.6661 N   0  0  0  0  0  0  0  0  0  0  0  0
   -4.8800    4.2715   13.9595 O   0  0  0  0  0  0  0  0  0  0  0  0
  1  2  1  0
  2  3  1  0
  3  4  1  0
  4  5  2  0
  5  6  1  0
  6  7  2  0
  7  8  1  0
  8  9  2  0
  8 10  1  0
  5 11  1  0
 11 12  1  0
 12 13  2  0
 13 14  1  0
 14 15  2  0
 15 16  1  0
 11 17  1  0
  9  4  1  0
 16 12  1  0
M  END
$$$$
