
     RDKit          3D

 17 18  0  0  0  0  0  0  0  0999 V2000
   -6.4367    1.3614   12.4676 C   0  0  0  0  0  0  0  0  0  0  0  0
   -5.0046    1.1686   11.9520 C   0  0  0  0  0  0  0  0  0  0  0  0
   -4.0691    0.8589   13.0901 C   0  0  0  0  0  0  0  0  0  0  0  0
   -2.6725    0.7598   12.6129 C   0  0  0  0  0  0  0  0  0  0  0  0
   -1.7321    1.6947   12.9476 C   0  0  0  0  0  0  0  0  0  0  0  0
   -0.4098    1.5301   12.5146 C   0  0  0  0  0  0  0  0  0  0  0  0
   -0.0274    0.4550   11.7598 C   0  0  0  0  0  0  0  0  0  0  0  0
   -0.9846   -0.4792   11.4275 C   0  0  0  0  0  0  0  0  0  0  0  0
   -2.2668   -0.3280   11.8432 C   0  0  0  0  0  0  0  0  0  0  0  0
   -0.6067   -1.5605   10.6696 F   0  0  0  0  0  0  0  0  0  0  0  0
   -2.0385    2.9220   13.7060 C   0  0  0  0  0  0  0  0  0  0  0  0
   -2.0877    4.1227   12.7990 C   0  0  0  0  0  0  0  0  0  0  0  0
   -3.1125    4.4357   11.9935 N   0  0  0  0  0  0  0  0  0  0  0  0
   -2.8355    5.5746   11.3166 C   0  0  0  0  0  0  0  0  0  0  0  0
   -1.5729    5.9655   11.7410 C   0  0  0  0  0  0  0  0  0  0  0  0
   -1.1394    5.0608   12.6463 N   0  0  0  0  0  0  0  0  0  0  0  0
   -1.0191    3.0954   14.6594 O   0  0  0  0  0  0  0  0  0  0  0  0
  1  2  1  0
  2  3  1  0
  3  4  1  0
  4  5  2  0
  5  6  1  0
  6  7  2  0
  7  8  1  0
  8  9  2  0
  8 10  1  0
  5 11  1  0
 11 12  1  0
 12 13  2  0
 13 14  1  0
 14 15  2  0
 15 16  1  0
 11 17  1  0
  9  4  1  0
 16 12  1  0
M  END
$$$$
