
     RDKit          3D

 17 18  0  0  0  0  0  0  0  0999 V2000
   -7.3754    1.3185   10.9415 C   0  0  0  0  0  0  0  0  0  0  0  0
   -6.3260    1.2644   12.0594 C   0  0  0  0  0  0  0  0  0  0  0  0
   -5.3558    2.4083   11.9308 C   0  0  0  0  0  0  0  0  0  0  0  0
   -3.9591    1.9249   11.9930 C   0  0  0  0  0  0  0  0  0  0  0  0
   -2.8995    2.7649   11.7879 C   0  0  0  0  0  0  0  0  0  0  0  0
   -1.5937    2.2717   11.9088 C   0  0  0  0  0  0  0  0  0  0  0  0
   -1.3436    0.9647   12.2264 C   0  0  0  0  0  0  0  0  0  0  0  0
   -2.4197    0.1278   12.4287 C   0  0  0  0  0  0  0  0  0  0  0  0
   -3.6871    0.5971   12.3146 C   0  0  0  0  0  0  0  0  0  0  0  0
   -2.1750   -1.1856   12.7476 F   0  0  0  0  0  0  0  0  0  0  0  0
   -3.0458    4.1759   11.3845 C   0  0  0  0  0  0  0  0  0  0  0  0
   -2.7172    5.1034   12.5241 C   0  0  0  0  0  0  0  0  0  0  0  0
   -1.4786    5.4651   12.8877 N   0  0  0  0  0  0  0  0  0  0  0  0
   -1.5362    6.3067   13.9462 C   0  0  0  0  0  0  0  0  0  0  0  0
   -2.8862    6.4572   14.2325 C   0  0  0  0  0  0  0  0  0  0  0  0
   -3.5850    5.7112   13.3487 N   0  0  0  0  0  0  0  0  0  0  0  0
   -4.3834    4.3676   10.9943 O   0  0  0  0  0  0  0  0  0  0  0  0
  1  2  1  0
  2  3  1  0
  3  4  1  0
  4  5  2  0
  5  6  1  0
  6  7  2  0
  7  8  1  0
  8  9  2  0
  8 10  1  0
  5 11  1  0
 11 12  1  0
 12 13  2  0
 13 14  1  0
 14 15  2  0
 15 16  1  0
 11 17  1  0
  9  4  1  0
 16 12  1  0
M  END
$$$$
