
     RDKit          3D

 17 18  0  0  0  0  0  0  0  0999 V2000
   -3.2010   -0.3874    9.8795 C   0  0  0  0  0  0  0  0  0  0  0  0
   -4.1240    0.3876   10.8289 C   0  0  0  0  0  0  0  0  0  0  0  0
   -3.3362    1.3832   11.6380 C   0  0  0  0  0  0  0  0  0  0  0  0
   -4.2278    2.1751   12.5133 C   0  0  0  0  0  0  0  0  0  0  0  0
   -4.6129    3.4454   12.1841 C   0  0  0  0  0  0  0  0  0  0  0  0
   -5.5005    4.1363   13.0195 C   0  0  0  0  0  0  0  0  0  0  0  0
   -5.9966    3.5757   14.1646 C   0  0  0  0  0  0  0  0  0  0  0  0
   -5.5995    2.2958   14.4864 C   0  0  0  0  0  0  0  0  0  0  0  0
   -4.7413    1.6194   13.6830 C   0  0  0  0  0  0  0  0  0  0  0  0
   -6.0940    1.7277   15.6350 F   0  0  0  0  0  0  0  0  0  0  0  0
   -4.0996    4.1724   11.0081 C   0  0  0  0  0  0  0  0  0  0  0  0
   -3.0763    5.2011   11.4099 C   0  0  0  0  0  0  0  0  0  0  0  0
   -1.8334    4.9253   11.8299 N   0  0  0  0  0  0  0  0  0  0  0  0
   -1.1755    6.0748   12.1088 C   0  0  0  0  0  0  0  0  0  0  0  0
   -2.0758    7.0968   11.8407 C   0  0  0  0  0  0  0  0  0  0  0  0
   -3.2288    6.5350   11.4155 N   0  0  0  0  0  0  0  0  0  0  0  0
   -5.1926    4.8119   10.3961 O   0  0  0  0  0  0  0  0  0  0  0  0
  1  2  1  0
  2  3  1  0
  3  4  1  0
  4  5  2  0
  5  6  1  0
  6  7  2  0
  7  8  1  0
  8  9  2  0
  8 10  1  0
  5 11  1  0
 11 12  1  0
 12 13  2  0
 13 14  1  0
 14 15  2  0
 15 16  1  0
 11 17  1  0
  9  4  1  0
 16 12  1  0
M  END
$$$$
