
     RDKit          3D

 17 18  0  0  0  0  0  0  0  0999 V2000
   -1.6512    7.1988   14.7278 C   0  0  0  0  0  0  0  0  0  0  0  0
   -1.2068    5.7708   14.3856 C   0  0  0  0  0  0  0  0  0  0  0  0
   -1.9469    5.2608   13.1779 C   0  0  0  0  0  0  0  0  0  0  0  0
   -1.5485    3.8715   12.8627 C   0  0  0  0  0  0  0  0  0  0  0  0
   -2.4682    2.9259   12.5019 C   0  0  0  0  0  0  0  0  0  0  0  0
   -2.0367    1.6370   12.1621 C   0  0  0  0  0  0  0  0  0  0  0  0
   -0.7130    1.2917   12.1818 C   0  0  0  0  0  0  0  0  0  0  0  0
    0.2039    2.2530   12.5489 C   0  0  0  0  0  0  0  0  0  0  0  0
   -0.2051    3.5034   12.8786 C   0  0  0  0  0  0  0  0  0  0  0  0
    1.5343    1.9122   12.5708 F   0  0  0  0  0  0  0  0  0  0  0  0
   -3.9236    3.1649   12.5006 C   0  0  0  0  0  0  0  0  0  0  0  0
   -4.6865    1.8707   12.5992 C   0  0  0  0  0  0  0  0  0  0  0  0
   -5.2718    1.2434   11.5690 N   0  0  0  0  0  0  0  0  0  0  0  0
   -5.8705    0.1087   12.0004 C   0  0  0  0  0  0  0  0  0  0  0  0
   -5.6300    0.0538   13.3664 C   0  0  0  0  0  0  0  0  0  0  0  0
   -4.9048    1.1423   13.7057 N   0  0  0  0  0  0  0  0  0  0  0  0
   -4.2452    3.8083   11.2919 O   0  0  0  0  0  0  0  0  0  0  0  0
  1  2  1  0
  2  3  1  0
  3  4  1  0
  4  5  2  0
  5  6  1  0
  6  7  2  0
  7  8  1  0
  8  9  2  0
  8 10  1  0
  5 11  1  0
 11 12  1  0
 12 13  2  0
 13 14  1  0
 14 15  2  0
 15 16  1  0
 11 17  1  0
  9  4  1  0
 16 12  1  0
M  END
$$$$
