
     RDKit          3D

 17 18  0  0  0  0  0  0  0  0999 V2000
   -7.7466    2.1199   12.5171 C   0  0  0  0  0  0  0  0  0  0  0  0
   -6.3250    1.7911   12.0431 C   0  0  0  0  0  0  0  0  0  0  0  0
   -5.3815    1.7118   13.2135 C   0  0  0  0  0  0  0  0  0  0  0  0
   -3.9970    1.4576   12.7588 C   0  0  0  0  0  0  0  0  0  0  0  0
   -3.0166    2.4032   12.8818 C   0  0  0  0  0  0  0  0  0  0  0  0
   -1.7083    2.0972   12.4847 C   0  0  0  0  0  0  0  0  0  0  0  0
   -1.3787    0.8724   11.9718 C   0  0  0  0  0  0  0  0  0  0  0  0
   -2.3759   -0.0712   11.8512 C   0  0  0  0  0  0  0  0  0  0  0  0
   -3.6449    0.2162   12.2340 C   0  0  0  0  0  0  0  0  0  0  0  0
   -2.0512   -1.3027   11.3367 F   0  0  0  0  0  0  0  0  0  0  0  0
   -3.2643    3.7743   13.3653 C   0  0  0  0  0  0  0  0  0  0  0  0
   -3.1479    4.7742   12.2458 C   0  0  0  0  0  0  0  0  0  0  0  0
   -3.0294    6.0996   12.4087 N   0  0  0  0  0  0  0  0  0  0  0  0
   -2.9462    6.7066   11.2017 C   0  0  0  0  0  0  0  0  0  0  0  0
   -3.0193    5.6866   10.2631 C   0  0  0  0  0  0  0  0  0  0  0  0
   -3.1422    4.5167   10.9281 N   0  0  0  0  0  0  0  0  0  0  0  0
   -2.2993    4.0566   14.3489 O   0  0  0  0  0  0  0  0  0  0  0  0
  1  2  1  0
  2  3  1  0
  3  4  1  0
  4  5  2  0
  5  6  1  0
  6  7  2  0
  7  8  1  0
  8  9  2  0
  8 10  1  0
  5 11  1  0
 11 12  1  0
 12 13  2  0
 13 14  1  0
 14 15  2  0
 15 16  1  0
 11 17  1  0
  9  4  1  0
 16 12  1  0
M  END
$$$$
