
     RDKit          3D

 17 18  0  0  0  0  0  0  0  0999 V2000
   -7.6103    3.1570   10.1256 C   0  0  0  0  0  0  0  0  0  0  0  0
   -6.2315    2.5603   10.4370 C   0  0  0  0  0  0  0  0  0  0  0  0
   -6.1324    2.1868   11.8920 C   0  0  0  0  0  0  0  0  0  0  0  0
   -4.7633    1.7399   12.2298 C   0  0  0  0  0  0  0  0  0  0  0  0
   -3.8994    2.5389   12.9267 C   0  0  0  0  0  0  0  0  0  0  0  0
   -2.6311    2.0516   13.2685 C   0  0  0  0  0  0  0  0  0  0  0  0
   -2.2261    0.7914   12.9224 C   0  0  0  0  0  0  0  0  0  0  0  0
   -3.1050   -0.0033   12.2187 C   0  0  0  0  0  0  0  0  0  0  0  0
   -4.3350    0.4602   11.8844 C   0  0  0  0  0  0  0  0  0  0  0  0
   -2.7039   -1.2693   11.8682 F   0  0  0  0  0  0  0  0  0  0  0  0
   -4.2030    3.9323   13.3026 C   0  0  0  0  0  0  0  0  0  0  0  0
   -3.0868    4.8589   12.8999 C   0  0  0  0  0  0  0  0  0  0  0  0
   -2.8147    5.2327   11.6415 N   0  0  0  0  0  0  0  0  0  0  0  0
   -1.7510    6.0696   11.6291 C   0  0  0  0  0  0  0  0  0  0  0  0
   -1.3642    6.2042   12.9555 C   0  0  0  0  0  0  0  0  0  0  0  0
   -2.1970    5.4540   13.7103 N   0  0  0  0  0  0  0  0  0  0  0  0
   -4.3618    3.9683   14.6997 O   0  0  0  0  0  0  0  0  0  0  0  0
  1  2  1  0
  2  3  1  0
  3  4  1  0
  4  5  2  0
  5  6  1  0
  6  7  2  0
  7  8  1  0
  8  9  2  0
  8 10  1  0
  5 11  1  0
 11 12  1  0
 12 13  2  0
 13 14  1  0
 14 15  2  0
 15 16  1  0
 11 17  1  0
  9  4  1  0
 16 12  1  0
M  END
$$$$
