
     RDKit          3D

 17 18  0  0  0  0  0  0  0  0999 V2000
   -7.7226    0.4030   13.5633 C   0  0  0  0  0  0  0  0  0  0  0  0
   -6.3401    0.4053   12.8978 C   0  0  0  0  0  0  0  0  0  0  0  0
   -5.4638    1.4706   13.5009 C   0  0  0  0  0  0  0  0  0  0  0  0
   -4.1471    1.5139   12.8280 C   0  0  0  0  0  0  0  0  0  0  0  0
   -3.5100    2.6971   12.5741 C   0  0  0  0  0  0  0  0  0  0  0  0
   -2.2405    2.6846   11.9815 C   0  0  0  0  0  0  0  0  0  0  0  0
   -1.6140    1.5159   11.6447 C   0  0  0  0  0  0  0  0  0  0  0  0
   -2.2672    0.3303   11.9039 C   0  0  0  0  0  0  0  0  0  0  0  0
   -3.4960    0.3333   12.4780 C   0  0  0  0  0  0  0  0  0  0  0  0
   -1.6434   -0.8463   11.5676 F   0  0  0  0  0  0  0  0  0  0  0  0
   -4.1101    4.0179   12.8394 C   0  0  0  0  0  0  0  0  0  0  0  0
   -3.6611    5.0327   11.8219 C   0  0  0  0  0  0  0  0  0  0  0  0
   -4.2666    6.2055   11.5874 N   0  0  0  0  0  0  0  0  0  0  0  0
   -3.6090    6.8772   10.6135 C   0  0  0  0  0  0  0  0  0  0  0  0
   -2.5496    6.0598   10.2440 C   0  0  0  0  0  0  0  0  0  0  0  0
   -2.6053    4.9396   10.9977 N   0  0  0  0  0  0  0  0  0  0  0  0
   -3.6934    4.4220   14.1206 O   0  0  0  0  0  0  0  0  0  0  0  0
  1  2  1  0
  2  3  1  0
  3  4  1  0
  4  5  2  0
  5  6  1  0
  6  7  2  0
  7  8  1  0
  8  9  2  0
  8 10  1  0
  5 11  1  0
 11 12  1  0
 12 13  2  0
 13 14  1  0
 14 15  2  0
 15 16  1  0
 11 17  1  0
  9  4  1  0
 16 12  1  0
M  END
$$$$
