
     RDKit          3D

 17 18  0  0  0  0  0  0  0  0999 V2000
   -6.1929    0.2924   11.3204 C   0  0  0  0  0  0  0  0  0  0  0  0
   -4.8222    0.3264   12.0090 C   0  0  0  0  0  0  0  0  0  0  0  0
   -3.8286    1.0886   11.1734 C   0  0  0  0  0  0  0  0  0  0  0  0
   -2.5201    1.1753   11.8579 C   0  0  0  0  0  0  0  0  0  0  0  0
   -2.2182    2.2098   12.7000 C   0  0  0  0  0  0  0  0  0  0  0  0
   -0.9857    2.2211   13.3660 C   0  0  0  0  0  0  0  0  0  0  0  0
   -0.0664    1.2219   13.1975 C   0  0  0  0  0  0  0  0  0  0  0  0
   -0.3816    0.1860   12.3449 C   0  0  0  0  0  0  0  0  0  0  0  0
   -1.5729    0.1668   11.6968 C   0  0  0  0  0  0  0  0  0  0  0  0
    0.5374   -0.8199   12.1714 F   0  0  0  0  0  0  0  0  0  0  0  0
   -3.1041    3.3692   12.9149 C   0  0  0  0  0  0  0  0  0  0  0  0
   -2.4352    4.6496   12.4907 C   0  0  0  0  0  0  0  0  0  0  0  0
   -2.4587    5.1539   11.2488 N   0  0  0  0  0  0  0  0  0  0  0  0
   -1.7620    6.3137   11.2091 C   0  0  0  0  0  0  0  0  0  0  0  0
   -1.2949    6.5150   12.5007 C   0  0  0  0  0  0  0  0  0  0  0  0
   -1.7205    5.4836   13.2629 N   0  0  0  0  0  0  0  0  0  0  0  0
   -3.3992    3.4268   14.2889 O   0  0  0  0  0  0  0  0  0  0  0  0
  1  2  1  0
  2  3  1  0
  3  4  1  0
  4  5  2  0
  5  6  1  0
  6  7  2  0
  7  8  1  0
  8  9  2  0
  8 10  1  0
  5 11  1  0
 11 12  1  0
 12 13  2  0
 13 14  1  0
 14 15  2  0
 15 16  1  0
 11 17  1  0
  9  4  1  0
 16 12  1  0
M  END
$$$$
