
     RDKit          3D

 17 18  0  0  0  0  0  0  0  0999 V2000
   -7.7628    0.9542   11.9572 C   0  0  0  0  0  0  0  0  0  0  0  0
   -6.3006    0.8199   12.4023 C   0  0  0  0  0  0  0  0  0  0  0  0
   -5.4019    1.6517   11.5267 C   0  0  0  0  0  0  0  0  0  0  0  0
   -3.9926    1.5433   11.9631 C   0  0  0  0  0  0  0  0  0  0  0  0
   -3.3691    2.5594   12.6333 C   0  0  0  0  0  0  0  0  0  0  0  0
   -2.0494    2.3896   13.0722 C   0  0  0  0  0  0  0  0  0  0  0  0
   -1.3590    1.2300   12.8478 C   0  0  0  0  0  0  0  0  0  0  0  0
   -1.9976    0.2143   12.1698 C   0  0  0  0  0  0  0  0  0  0  0  0
   -3.2753    0.3699   11.7421 C   0  0  0  0  0  0  0  0  0  0  0  0
   -1.3095   -0.9523   11.9413 F   0  0  0  0  0  0  0  0  0  0  0  0
   -3.9916    3.8732   12.8814 C   0  0  0  0  0  0  0  0  0  0  0  0
   -3.0484    4.9948   12.5362 C   0  0  0  0  0  0  0  0  0  0  0  0
   -2.8054    6.0606   13.3122 N   0  0  0  0  0  0  0  0  0  0  0  0
   -1.9095    6.8759   12.7082 C   0  0  0  0  0  0  0  0  0  0  0  0
   -1.5987    6.2632   11.5020 C   0  0  0  0  0  0  0  0  0  0  0  0
   -2.3085    5.1161   11.4225 N   0  0  0  0  0  0  0  0  0  0  0  0
   -4.3152    3.9363   14.2487 O   0  0  0  0  0  0  0  0  0  0  0  0
  1  2  1  0
  2  3  1  0
  3  4  1  0
  4  5  2  0
  5  6  1  0
  6  7  2  0
  7  8  1  0
  8  9  2  0
  8 10  1  0
  5 11  1  0
 11 12  1  0
 12 13  2  0
 13 14  1  0
 14 15  2  0
 15 16  1  0
 11 17  1  0
  9  4  1  0
 16 12  1  0
M  END
$$$$
