
     RDKit          3D

 17 18  0  0  0  0  0  0  0  0999 V2000
   -7.7189    1.5569   11.6695 C   0  0  0  0  0  0  0  0  0  0  0  0
   -6.1900    1.4774   11.5674 C   0  0  0  0  0  0  0  0  0  0  0  0
   -5.5714    1.3931   12.9372 C   0  0  0  0  0  0  0  0  0  0  0  0
   -4.0949    1.3708   12.8488 C   0  0  0  0  0  0  0  0  0  0  0  0
   -3.3410    2.4684   13.1610 C   0  0  0  0  0  0  0  0  0  0  0  0
   -1.9435    2.3828   13.1123 C   0  0  0  0  0  0  0  0  0  0  0  0
   -1.3043    1.2264   12.7575 C   0  0  0  0  0  0  0  0  0  0  0  0
   -2.0751    0.1280   12.4433 C   0  0  0  0  0  0  0  0  0  0  0  0
   -3.4286    0.2018   12.4887 C   0  0  0  0  0  0  0  0  0  0  0  0
   -1.4391   -1.0358   12.0860 F   0  0  0  0  0  0  0  0  0  0  0  0
   -3.9182    3.7825   13.5003 C   0  0  0  0  0  0  0  0  0  0  0  0
   -3.2493    4.8859   12.7247 C   0  0  0  0  0  0  0  0  0  0  0  0
   -2.5976    5.9226   13.2703 N   0  0  0  0  0  0  0  0  0  0  0  0
   -2.1153    6.7285   12.2955 C   0  0  0  0  0  0  0  0  0  0  0  0
   -2.5005    6.1407   11.0983 C   0  0  0  0  0  0  0  0  0  0  0  0
   -3.1918    5.0168   11.3897 N   0  0  0  0  0  0  0  0  0  0  0  0
   -3.7187    3.9891   14.8772 O   0  0  0  0  0  0  0  0  0  0  0  0
  1  2  1  0
  2  3  1  0
  3  4  1  0
  4  5  2  0
  5  6  1  0
  6  7  2  0
  7  8  1  0
  8  9  2  0
  8 10  1  0
  5 11  1  0
 11 12  1  0
 12 13  2  0
 13 14  1  0
 14 15  2  0
 15 16  1  0
 11 17  1  0
  9  4  1  0
 16 12  1  0
M  END
$$$$
