
     RDKit          3D

 17 18  0  0  0  0  0  0  0  0999 V2000
   -7.6486    0.6022   12.9468 C   0  0  0  0  0  0  0  0  0  0  0  0
   -6.1143    0.5947   12.9463 C   0  0  0  0  0  0  0  0  0  0  0  0
   -5.5786    1.8705   12.3533 C   0  0  0  0  0  0  0  0  0  0  0  0
   -4.0998    1.8568   12.3203 C   0  0  0  0  0  0  0  0  0  0  0  0
   -3.3651    2.9693   12.6251 C   0  0  0  0  0  0  0  0  0  0  0  0
   -1.9662    2.8930   12.6309 C   0  0  0  0  0  0  0  0  0  0  0  0
   -1.3068    1.7308   12.3370 C   0  0  0  0  0  0  0  0  0  0  0  0
   -2.0582    0.6172   12.0296 C   0  0  0  0  0  0  0  0  0  0  0  0
   -3.4129    0.6821   12.0225 C   0  0  0  0  0  0  0  0  0  0  0  0
   -1.4018   -0.5524   11.7334 F   0  0  0  0  0  0  0  0  0  0  0  0
   -3.9631    4.2890   12.9008 C   0  0  0  0  0  0  0  0  0  0  0  0
   -2.9497    5.3899   12.7337 C   0  0  0  0  0  0  0  0  0  0  0  0
   -2.4072    5.7641   11.5663 N   0  0  0  0  0  0  0  0  0  0  0  0
   -1.5363    6.7805   11.7676 C   0  0  0  0  0  0  0  0  0  0  0  0
   -1.5586    7.0286   13.1332 C   0  0  0  0  0  0  0  0  0  0  0  0
   -2.4302    6.1649   13.6991 N   0  0  0  0  0  0  0  0  0  0  0  0
   -4.4255    4.2746   14.2290 O   0  0  0  0  0  0  0  0  0  0  0  0
  1  2  1  0
  2  3  1  0
  3  4  1  0
  4  5  2  0
  5  6  1  0
  6  7  2  0
  7  8  1  0
  8  9  2  0
  8 10  1  0
  5 11  1  0
 11 12  1  0
 12 13  2  0
 13 14  1  0
 14 15  2  0
 15 16  1  0
 11 17  1  0
  9  4  1  0
 16 12  1  0
M  END
$$$$
