
     RDKit          3D

 17 18  0  0  0  0  0  0  0  0999 V2000
   -7.9149    2.3205   11.1529 C   0  0  0  0  0  0  0  0  0  0  0  0
   -6.4369    1.9104   11.1882 C   0  0  0  0  0  0  0  0  0  0  0  0
   -5.8990    1.9885   12.5921 C   0  0  0  0  0  0  0  0  0  0  0  0
   -4.4558    1.6653   12.6228 C   0  0  0  0  0  0  0  0  0  0  0  0
   -3.5430    2.5120   13.1887 C   0  0  0  0  0  0  0  0  0  0  0  0
   -2.1937    2.1384   13.2405 C   0  0  0  0  0  0  0  0  0  0  0  0
   -1.7570    0.9437   12.7367 C   0  0  0  0  0  0  0  0  0  0  0  0
   -2.6862    0.1000   12.1673 C   0  0  0  0  0  0  0  0  0  0  0  0
   -3.9945    0.4534   12.1139 C   0  0  0  0  0  0  0  0  0  0  0  0
   -2.2537   -1.1008   11.6596 F   0  0  0  0  0  0  0  0  0  0  0  0
   -3.8865    3.8479   13.7107 C   0  0  0  0  0  0  0  0  0  0  0  0
   -3.1502    4.9284   12.9642 C   0  0  0  0  0  0  0  0  0  0  0  0
   -3.3901    6.2423   13.0797 N   0  0  0  0  0  0  0  0  0  0  0  0
   -2.5531    6.9362   12.2735 C   0  0  0  0  0  0  0  0  0  0  0  0
   -1.7677    5.9834   11.6392 C   0  0  0  0  0  0  0  0  0  0  0  0
   -2.1536    4.7656   12.0795 N   0  0  0  0  0  0  0  0  0  0  0  0
   -3.5169    3.8796   15.0674 O   0  0  0  0  0  0  0  0  0  0  0  0
  1  2  1  0
  2  3  1  0
  3  4  1  0
  4  5  2  0
  5  6  1  0
  6  7  2  0
  7  8  1  0
  8  9  2  0
  8 10  1  0
  5 11  1  0
 11 12  1  0
 12 13  2  0
 13 14  1  0
 14 15  2  0
 15 16  1  0
 11 17  1  0
  9  4  1  0
 16 12  1  0
M  END
$$$$
