
     RDKit          3D

 17 18  0  0  0  0  0  0  0  0999 V2000
   -8.0142    1.0029   13.2794 C   0  0  0  0  0  0  0  0  0  0  0  0
   -6.4841    0.8910   13.2824 C   0  0  0  0  0  0  0  0  0  0  0  0
   -5.8836    1.8121   12.2541 C   0  0  0  0  0  0  0  0  0  0  0  0
   -4.4128    1.6613   12.2056 C   0  0  0  0  0  0  0  0  0  0  0  0
   -3.5752    2.7107   12.4654 C   0  0  0  0  0  0  0  0  0  0  0  0
   -2.1892    2.5062   12.4584 C   0  0  0  0  0  0  0  0  0  0  0  0
   -1.6431    1.2796   12.1959 C   0  0  0  0  0  0  0  0  0  0  0  0
   -2.4976    0.2305   11.9337 C   0  0  0  0  0  0  0  0  0  0  0  0
   -3.8407    0.4195   11.9393 C   0  0  0  0  0  0  0  0  0  0  0  0
   -1.9553   -1.0033   11.6692 F   0  0  0  0  0  0  0  0  0  0  0  0
   -4.0459    4.0880   12.7037 C   0  0  0  0  0  0  0  0  0  0  0  0
   -2.9050    5.0689   12.6482 C   0  0  0  0  0  0  0  0  0  0  0  0
   -2.2180    5.3865   11.5417 N   0  0  0  0  0  0  0  0  0  0  0  0
   -1.2618    6.2974   11.8385 C   0  0  0  0  0  0  0  0  0  0  0  0
   -1.3834    6.5386   13.2001 C   0  0  0  0  0  0  0  0  0  0  0  0
   -2.3946    5.7751   13.6696 N   0  0  0  0  0  0  0  0  0  0  0  0
   -4.6301    4.1197   13.9828 O   0  0  0  0  0  0  0  0  0  0  0  0
  1  2  1  0
  2  3  1  0
  3  4  1  0
  4  5  2  0
  5  6  1  0
  6  7  2  0
  7  8  1  0
  8  9  2  0
  8 10  1  0
  5 11  1  0
 11 12  1  0
 12 13  2  0
 13 14  1  0
 14 15  2  0
 15 16  1  0
 11 17  1  0
  9  4  1  0
 16 12  1  0
M  END
$$$$
