
     RDKit          3D

 17 18  0  0  0  0  0  0  0  0999 V2000
   -5.7310   -0.4791   12.8437 C   0  0  0  0  0  0  0  0  0  0  0  0
   -4.6460    0.5356   13.2273 C   0  0  0  0  0  0  0  0  0  0  0  0
   -4.1561    1.2730   12.0097 C   0  0  0  0  0  0  0  0  0  0  0  0
   -3.1773    2.3172   12.3836 C   0  0  0  0  0  0  0  0  0  0  0  0
   -3.4099    3.6413   12.1325 C   0  0  0  0  0  0  0  0  0  0  0  0
   -2.4766    4.5982   12.5523 C   0  0  0  0  0  0  0  0  0  0  0  0
   -1.3295    4.2460   13.2095 C   0  0  0  0  0  0  0  0  0  0  0  0
   -1.1057    2.9084   13.4549 C   0  0  0  0  0  0  0  0  0  0  0  0
   -2.0043    1.9756   13.0528 C   0  0  0  0  0  0  0  0  0  0  0  0
    0.0444    2.5487   14.1141 F   0  0  0  0  0  0  0  0  0  0  0  0
   -4.5802    4.1340   11.3823 C   0  0  0  0  0  0  0  0  0  0  0  0
   -4.2025    4.5143    9.9754 C   0  0  0  0  0  0  0  0  0  0  0  0
   -4.3523    5.7355    9.4430 N   0  0  0  0  0  0  0  0  0  0  0  0
   -3.9138    5.7370    8.1625 C   0  0  0  0  0  0  0  0  0  0  0  0
   -3.4767    4.4431    7.9142 C   0  0  0  0  0  0  0  0  0  0  0  0
   -3.6646    3.7172    9.0384 N   0  0  0  0  0  0  0  0  0  0  0  0
   -5.0701    5.2657   12.0588 O   0  0  0  0  0  0  0  0  0  0  0  0
  1  2  1  0
  2  3  1  0
  3  4  1  0
  4  5  2  0
  5  6  1  0
  6  7  2  0
  7  8  1  0
  8  9  2  0
  8 10  1  0
  5 11  1  0
 11 12  1  0
 12 13  2  0
 13 14  1  0
 14 15  2  0
 15 16  1  0
 11 17  1  0
  9  4  1  0
 16 12  1  0
M  END
$$$$
