
     RDKit          3D

 17 18  0  0  0  0  0  0  0  0999 V2000
   -2.3955    0.0298   11.9919 C   0  0  0  0  0  0  0  0  0  0  0  0
   -0.8838   -0.1977   11.8613 C   0  0  0  0  0  0  0  0  0  0  0  0
   -0.3804   -1.0677   12.9821 C   0  0  0  0  0  0  0  0  0  0  0  0
    1.0847   -1.2506   12.8908 C   0  0  0  0  0  0  0  0  0  0  0  0
    1.9252   -0.8106   13.8758 C   0  0  0  0  0  0  0  0  0  0  0  0
    3.3010   -1.0533   13.7692 C   0  0  0  0  0  0  0  0  0  0  0  0
    3.8342   -1.7207   12.7005 C   0  0  0  0  0  0  0  0  0  0  0  0
    2.9770   -2.1573   11.7136 C   0  0  0  0  0  0  0  0  0  0  0  0
    1.6438   -1.9274   11.8093 C   0  0  0  0  0  0  0  0  0  0  0  0
    3.5066   -2.8277   10.6381 F   0  0  0  0  0  0  0  0  0  0  0  0
    1.4732   -0.0309   15.0433 C   0  0  0  0  0  0  0  0  0  0  0  0
    1.9830    1.3843   14.9814 C   0  0  0  0  0  0  0  0  0  0  0  0
    2.2867    2.1388   16.0472 N   0  0  0  0  0  0  0  0  0  0  0  0
    2.7163    3.3568   15.6422 C   0  0  0  0  0  0  0  0  0  0  0  0
    2.6669    3.3298   14.2552 C   0  0  0  0  0  0  0  0  0  0  0  0
    2.2154    2.1133   13.8782 N   0  0  0  0  0  0  0  0  0  0  0  0
    1.9784   -0.6618   16.1944 O   0  0  0  0  0  0  0  0  0  0  0  0
  1  2  1  0
  2  3  1  0
  3  4  1  0
  4  5  2  0
  5  6  1  0
  6  7  2  0
  7  8  1  0
  8  9  2  0
  8 10  1  0
  5 11  1  0
 11 12  1  0
 12 13  2  0
 13 14  1  0
 14 15  2  0
 15 16  1  0
 11 17  1  0
  9  4  1  0
 16 12  1  0
M  END
$$$$
