
     RDKit          3D

 17 18  0  0  0  0  0  0  0  0999 V2000
   -1.8118   -0.5044   10.0290 C   0  0  0  0  0  0  0  0  0  0  0  0
   -1.4278    0.9780   10.1244 C   0  0  0  0  0  0  0  0  0  0  0  0
   -1.5706    1.4721   11.5393 C   0  0  0  0  0  0  0  0  0  0  0  0
   -2.9964    1.6090   11.9089 C   0  0  0  0  0  0  0  0  0  0  0  0
   -3.7227    2.7163   11.5674 C   0  0  0  0  0  0  0  0  0  0  0  0
   -5.0838    2.7773   11.8941 C   0  0  0  0  0  0  0  0  0  0  0  0
   -5.7135    1.7558   12.5512 C   0  0  0  0  0  0  0  0  0  0  0  0
   -4.9703    0.6462   12.8916 C   0  0  0  0  0  0  0  0  0  0  0  0
   -3.6524    0.5786   12.5784 C   0  0  0  0  0  0  0  0  0  0  0  0
   -5.5969   -0.3825   13.5517 F   0  0  0  0  0  0  0  0  0  0  0  0
   -3.1398    3.9014   10.9109 C   0  0  0  0  0  0  0  0  0  0  0  0
   -2.6016    4.8746   11.9257 C   0  0  0  0  0  0  0  0  0  0  0  0
   -2.9304    6.1723   11.9955 N   0  0  0  0  0  0  0  0  0  0  0  0
   -2.2707    6.7605   13.0207 C   0  0  0  0  0  0  0  0  0  0  0  0
   -1.5032    5.7577   13.5972 C   0  0  0  0  0  0  0  0  0  0  0  0
   -1.7243    4.6162   12.9087 N   0  0  0  0  0  0  0  0  0  0  0  0
   -4.1615    4.5174   10.1659 O   0  0  0  0  0  0  0  0  0  0  0  0
  1  2  1  0
  2  3  1  0
  3  4  1  0
  4  5  2  0
  5  6  1  0
  6  7  2  0
  7  8  1  0
  8  9  2  0
  8 10  1  0
  5 11  1  0
 11 12  1  0
 12 13  2  0
 13 14  1  0
 14 15  2  0
 15 16  1  0
 11 17  1  0
  9  4  1  0
 16 12  1  0
M  END
$$$$
