
     RDKit          3D

 17 18  0  0  0  0  0  0  0  0999 V2000
   -6.9781    0.4012   12.4879 C   0  0  0  0  0  0  0  0  0  0  0  0
   -5.4673    0.4879   12.7410 C   0  0  0  0  0  0  0  0  0  0  0  0
   -4.8587    1.6050   11.9361 C   0  0  0  0  0  0  0  0  0  0  0  0
   -3.4162    1.7441   12.2332 C   0  0  0  0  0  0  0  0  0  0  0  0
   -2.8944    2.9081   12.7264 C   0  0  0  0  0  0  0  0  0  0  0  0
   -1.5309    2.9748   13.0416 C   0  0  0  0  0  0  0  0  0  0  0  0
   -0.6980    1.9033   12.8682 C   0  0  0  0  0  0  0  0  0  0  0  0
   -1.2354    0.7367   12.3686 C   0  0  0  0  0  0  0  0  0  0  0  0
   -2.5545    0.6632   12.0617 C   0  0  0  0  0  0  0  0  0  0  0  0
   -0.4041   -0.3423   12.1921 F   0  0  0  0  0  0  0  0  0  0  0  0
   -3.6812    4.1434   12.9004 C   0  0  0  0  0  0  0  0  0  0  0  0
   -2.8841    5.3559   12.4990 C   0  0  0  0  0  0  0  0  0  0  0  0
   -2.5588    6.3669   13.3171 N   0  0  0  0  0  0  0  0  0  0  0  0
   -1.8399    7.2935   12.6414 C   0  0  0  0  0  0  0  0  0  0  0  0
   -1.7287    6.8097   11.3451 C   0  0  0  0  0  0  0  0  0  0  0  0
   -2.3756    5.6248   11.2859 N   0  0  0  0  0  0  0  0  0  0  0  0
   -4.0254    4.2374   14.2608 O   0  0  0  0  0  0  0  0  0  0  0  0
  1  2  1  0
  2  3  1  0
  3  4  1  0
  4  5  2  0
  5  6  1  0
  6  7  2  0
  7  8  1  0
  8  9  2  0
  8 10  1  0
  5 11  1  0
 11 12  1  0
 12 13  2  0
 13 14  1  0
 14 15  2  0
 15 16  1  0
 11 17  1  0
  9  4  1  0
 16 12  1  0
M  END
$$$$
