
     RDKit          3D

 17 18  0  0  0  0  0  0  0  0999 V2000
   -7.7888    0.9902   13.1503 C   0  0  0  0  0  0  0  0  0  0  0  0
   -6.3287    0.7856   12.7259 C   0  0  0  0  0  0  0  0  0  0  0  0
   -5.4359    1.7958   13.3957 C   0  0  0  0  0  0  0  0  0  0  0  0
   -4.0353    1.6433   12.9447 C   0  0  0  0  0  0  0  0  0  0  0  0
   -3.1864    2.7127   12.8665 C   0  0  0  0  0  0  0  0  0  0  0  0
   -1.8539    2.5102   12.4838 C   0  0  0  0  0  0  0  0  0  0  0  0
   -1.3721    1.2658   12.1817 C   0  0  0  0  0  0  0  0  0  0  0  0
   -2.2379    0.1966   12.2624 C   0  0  0  0  0  0  0  0  0  0  0  0
   -3.5291    0.3835   12.6329 C   0  0  0  0  0  0  0  0  0  0  0  0
   -1.7600   -1.0552   11.9601 F   0  0  0  0  0  0  0  0  0  0  0  0
   -3.6067    4.1050   13.1113 C   0  0  0  0  0  0  0  0  0  0  0  0
   -3.1851    5.0061   11.9813 C   0  0  0  0  0  0  0  0  0  0  0  0
   -3.5068    4.8243   10.6926 N   0  0  0  0  0  0  0  0  0  0  0  0
   -2.9698    5.8126    9.9396 C   0  0  0  0  0  0  0  0  0  0  0  0
   -2.2878    6.6325   10.8282 C   0  0  0  0  0  0  0  0  0  0  0  0
   -2.4357    6.1167   12.0683 N   0  0  0  0  0  0  0  0  0  0  0  0
   -2.9923    4.5286   14.3035 O   0  0  0  0  0  0  0  0  0  0  0  0
  1  2  1  0
  2  3  1  0
  3  4  1  0
  4  5  2  0
  5  6  1  0
  6  7  2  0
  7  8  1  0
  8  9  2  0
  8 10  1  0
  5 11  1  0
 11 12  1  0
 12 13  2  0
 13 14  1  0
 14 15  2  0
 15 16  1  0
 11 17  1  0
  9  4  1  0
 16 12  1  0
M  END
$$$$
