
     RDKit          3D

 17 18  0  0  0  0  0  0  0  0999 V2000
   -6.7236    0.0613   12.4297 C   0  0  0  0  0  0  0  0  0  0  0  0
   -5.3523    0.6156   12.0220 C   0  0  0  0  0  0  0  0  0  0  0  0
   -4.7552    1.4271   13.1407 C   0  0  0  0  0  0  0  0  0  0  0  0
   -3.3483    1.7766   12.8462 C   0  0  0  0  0  0  0  0  0  0  0  0
   -2.9284    3.0771   12.7924 C   0  0  0  0  0  0  0  0  0  0  0  0
   -1.5751    3.3569   12.5618 C   0  0  0  0  0  0  0  0  0  0  0  0
   -0.6533    2.3614   12.3855 C   0  0  0  0  0  0  0  0  0  0  0  0
   -1.0892    1.0551   12.4401 C   0  0  0  0  0  0  0  0  0  0  0  0
   -2.3973    0.7752   12.6638 C   0  0  0  0  0  0  0  0  0  0  0  0
   -0.1685    0.0513   12.2636 F   0  0  0  0  0  0  0  0  0  0  0  0
   -3.8386    4.2316   12.9094 C   0  0  0  0  0  0  0  0  0  0  0  0
   -4.2238    4.7590   11.5529 C   0  0  0  0  0  0  0  0  0  0  0  0
   -5.4368    5.2276   11.2267 N   0  0  0  0  0  0  0  0  0  0  0  0
   -5.4455    5.6226    9.9321 C   0  0  0  0  0  0  0  0  0  0  0  0
   -4.1649    5.3762    9.4562 C   0  0  0  0  0  0  0  0  0  0  0  0
   -3.4394    4.8487   10.4669 N   0  0  0  0  0  0  0  0  0  0  0  0
   -3.1607    5.2334   13.6271 O   0  0  0  0  0  0  0  0  0  0  0  0
  1  2  1  0
  2  3  1  0
  3  4  1  0
  4  5  2  0
  5  6  1  0
  6  7  2  0
  7  8  1  0
  8  9  2  0
  8 10  1  0
  5 11  1  0
 11 12  1  0
 12 13  2  0
 13 14  1  0
 14 15  2  0
 15 16  1  0
 11 17  1  0
  9  4  1  0
 16 12  1  0
M  END
$$$$
