
     RDKit          3D

 17 18  0  0  0  0  0  0  0  0999 V2000
   -3.7443    4.8461    7.8560 C   0  0  0  0  0  0  0  0  0  0  0  0
   -3.5007    3.9452    9.0738 C   0  0  0  0  0  0  0  0  0  0  0  0
   -4.8066    3.5503    9.7102 C   0  0  0  0  0  0  0  0  0  0  0  0
   -4.5783    2.7011   10.8997 C   0  0  0  0  0  0  0  0  0  0  0  0
   -4.7331    3.1874   12.1686 C   0  0  0  0  0  0  0  0  0  0  0  0
   -4.5565    2.3306   13.2629 C   0  0  0  0  0  0  0  0  0  0  0  0
   -4.2297    1.0120   13.1003 C   0  0  0  0  0  0  0  0  0  0  0  0
   -4.0747    0.5345   11.8168 C   0  0  0  0  0  0  0  0  0  0  0  0
   -4.2446    1.3568   10.7518 C   0  0  0  0  0  0  0  0  0  0  0  0
   -3.7463   -0.7884   11.6473 F   0  0  0  0  0  0  0  0  0  0  0  0
   -5.0266    4.6014   12.4680 C   0  0  0  0  0  0  0  0  0  0  0  0
   -3.7642    5.3677   12.7611 C   0  0  0  0  0  0  0  0  0  0  0  0
   -3.2977    5.6394   13.9882 N   0  0  0  0  0  0  0  0  0  0  0  0
   -2.1444    6.3421   13.8977 C   0  0  0  0  0  0  0  0  0  0  0  0
   -1.9071    6.5000   12.5391 C   0  0  0  0  0  0  0  0  0  0  0  0
   -2.9120    5.8953   11.8679 N   0  0  0  0  0  0  0  0  0  0  0  0
   -5.8652    4.6292   13.5969 O   0  0  0  0  0  0  0  0  0  0  0  0
  1  2  1  0
  2  3  1  0
  3  4  1  0
  4  5  2  0
  5  6  1  0
  6  7  2  0
  7  8  1  0
  8  9  2  0
  8 10  1  0
  5 11  1  0
 11 12  1  0
 12 13  2  0
 13 14  1  0
 14 15  2  0
 15 16  1  0
 11 17  1  0
  9  4  1  0
 16 12  1  0
M  END
$$$$
