
     RDKit          3D

 17 18  0  0  0  0  0  0  0  0999 V2000
   -7.3067    4.0630    9.3725 C   0  0  0  0  0  0  0  0  0  0  0  0
   -6.1336    3.2290    9.9037 C   0  0  0  0  0  0  0  0  0  0  0  0
   -6.2184    3.0884   11.4001 C   0  0  0  0  0  0  0  0  0  0  0  0
   -5.0260    2.3941   11.9332 C   0  0  0  0  0  0  0  0  0  0  0  0
   -4.2152    2.9762   12.8682 C   0  0  0  0  0  0  0  0  0  0  0  0
   -3.1270    2.2585   13.3816 C   0  0  0  0  0  0  0  0  0  0  0  0
   -2.8469    0.9835   12.9720 C   0  0  0  0  0  0  0  0  0  0  0  0
   -3.6702    0.4086   12.0280 C   0  0  0  0  0  0  0  0  0  0  0  0
   -4.7264    1.0960   11.5264 C   0  0  0  0  0  0  0  0  0  0  0  0
   -3.3940   -0.8711   11.6127 F   0  0  0  0  0  0  0  0  0  0  0  0
   -4.3837    4.3628   13.3415 C   0  0  0  0  0  0  0  0  0  0  0  0
   -3.1766    5.1998   13.0113 C   0  0  0  0  0  0  0  0  0  0  0  0
   -2.4832    5.9307   13.8957 N   0  0  0  0  0  0  0  0  0  0  0  0
   -1.4593    6.5592   13.2721 C   0  0  0  0  0  0  0  0  0  0  0  0
   -1.5449    6.1832   11.9386 C   0  0  0  0  0  0  0  0  0  0  0  0
   -2.6027    5.3527   11.8072 N   0  0  0  0  0  0  0  0  0  0  0  0
   -4.5545    4.3155   14.7368 O   0  0  0  0  0  0  0  0  0  0  0  0
  1  2  1  0
  2  3  1  0
  3  4  1  0
  4  5  2  0
  5  6  1  0
  6  7  2  0
  7  8  1  0
  8  9  2  0
  8 10  1  0
  5 11  1  0
 11 12  1  0
 12 13  2  0
 13 14  1  0
 14 15  2  0
 15 16  1  0
 11 17  1  0
  9  4  1  0
 16 12  1  0
M  END
$$$$
