
     RDKit          3D

 17 18  0  0  0  0  0  0  0  0999 V2000
   -8.4017    0.7524   13.4231 C   0  0  0  0  0  0  0  0  0  0  0  0
   -6.9753    0.5958   12.8800 C   0  0  0  0  0  0  0  0  0  0  0  0
   -6.1150    1.7542   13.3095 C   0  0  0  0  0  0  0  0  0  0  0  0
   -4.7508    1.6339   12.7504 C   0  0  0  0  0  0  0  0  0  0  0  0
   -3.9208    2.7157   12.6451 C   0  0  0  0  0  0  0  0  0  0  0  0
   -2.6188    2.5424   12.1575 C   0  0  0  0  0  0  0  0  0  0  0  0
   -2.1487    1.3147   11.7787 C   0  0  0  0  0  0  0  0  0  0  0  0
   -2.9953    0.2327   11.8877 C   0  0  0  0  0  0  0  0  0  0  0  0
   -4.2570    0.3914   12.3595 C   0  0  0  0  0  0  0  0  0  0  0  0
   -2.5291   -1.0024   11.5087 F   0  0  0  0  0  0  0  0  0  0  0  0
   -4.3353    4.0939   12.9673 C   0  0  0  0  0  0  0  0  0  0  0  0
   -3.2225    5.0721   12.6999 C   0  0  0  0  0  0  0  0  0  0  0  0
   -2.8818    5.5362   11.4892 N   0  0  0  0  0  0  0  0  0  0  0  0
   -1.8437    6.3975   11.6011 C   0  0  0  0  0  0  0  0  0  0  0  0
   -1.5459    6.4519   12.9559 C   0  0  0  0  0  0  0  0  0  0  0  0
   -2.4033    5.6328   13.6039 N   0  0  0  0  0  0  0  0  0  0  0  0
   -4.6704    4.1263   14.3330 O   0  0  0  0  0  0  0  0  0  0  0  0
  1  2  1  0
  2  3  1  0
  3  4  1  0
  4  5  2  0
  5  6  1  0
  6  7  2  0
  7  8  1  0
  8  9  2  0
  8 10  1  0
  5 11  1  0
 11 12  1  0
 12 13  2  0
 13 14  1  0
 14 15  2  0
 15 16  1  0
 11 17  1  0
  9  4  1  0
 16 12  1  0
M  END
$$$$
