
     RDKit          3D

 17 18  0  0  0  0  0  0  0  0999 V2000
   -1.9165    2.9764    7.9228 C   0  0  0  0  0  0  0  0  0  0  0  0
   -2.3575    2.4504    9.2949 C   0  0  0  0  0  0  0  0  0  0  0  0
   -3.7302    2.9620    9.6421 C   0  0  0  0  0  0  0  0  0  0  0  0
   -4.1285    2.5255   10.9982 C   0  0  0  0  0  0  0  0  0  0  0  0
   -4.5158    3.4221   11.9555 C   0  0  0  0  0  0  0  0  0  0  0  0
   -4.9343    2.9565   13.2089 C   0  0  0  0  0  0  0  0  0  0  0  0
   -4.9661    1.6218   13.5079 C   0  0  0  0  0  0  0  0  0  0  0  0
   -4.5716    0.7285   12.5355 C   0  0  0  0  0  0  0  0  0  0  0  0
   -4.1659    1.1705   11.3192 C   0  0  0  0  0  0  0  0  0  0  0  0
   -4.6011   -0.6128   12.8300 F   0  0  0  0  0  0  0  0  0  0  0  0
   -4.4680    4.8842   11.7680 C   0  0  0  0  0  0  0  0  0  0  0  0
   -3.7631    5.5561   12.9163 C   0  0  0  0  0  0  0  0  0  0  0  0
   -2.4359    5.5629   13.1049 N   0  0  0  0  0  0  0  0  0  0  0  0
   -2.1336    6.2546   14.2284 C   0  0  0  0  0  0  0  0  0  0  0  0
   -3.3491    6.6862   14.7415 C   0  0  0  0  0  0  0  0  0  0  0  0
   -4.3277    6.2455   13.9205 N   0  0  0  0  0  0  0  0  0  0  0  0
   -5.7950    5.3450   11.6978 O   0  0  0  0  0  0  0  0  0  0  0  0
  1  2  1  0
  2  3  1  0
  3  4  1  0
  4  5  2  0
  5  6  1  0
  6  7  2  0
  7  8  1  0
  8  9  2  0
  8 10  1  0
  5 11  1  0
 11 12  1  0
 12 13  2  0
 13 14  1  0
 14 15  2  0
 15 16  1  0
 11 17  1  0
  9  4  1  0
 16 12  1  0
M  END
$$$$
