
     RDKit          3D

 17 18  0  0  0  0  0  0  0  0999 V2000
    0.4903    3.4974   12.0829 C   0  0  0  0  0  0  0  0  0  0  0  0
   -0.8128    2.7546   11.7601 C   0  0  0  0  0  0  0  0  0  0  0  0
   -1.8293    2.9707   12.8494 C   0  0  0  0  0  0  0  0  0  0  0  0
   -3.0975    2.2784   12.5322 C   0  0  0  0  0  0  0  0  0  0  0  0
   -4.1068    2.9051   11.8547 C   0  0  0  0  0  0  0  0  0  0  0  0
   -5.2686    2.1919   11.5316 C   0  0  0  0  0  0  0  0  0  0  0  0
   -5.4269    0.8776   11.8774 C   0  0  0  0  0  0  0  0  0  0  0  0
   -4.4036    0.2579   12.5616 C   0  0  0  0  0  0  0  0  0  0  0  0
   -3.2751    0.9407   12.8776 C   0  0  0  0  0  0  0  0  0  0  0  0
   -4.5568   -1.0614   12.9117 F   0  0  0  0  0  0  0  0  0  0  0  0
   -4.0734    4.3316   11.4816 C   0  0  0  0  0  0  0  0  0  0  0  0
   -4.5733    5.1988   12.6062 C   0  0  0  0  0  0  0  0  0  0  0  0
   -3.8449    5.5790   13.6654 N   0  0  0  0  0  0  0  0  0  0  0  0
   -4.5935    6.3526   14.4859 C   0  0  0  0  0  0  0  0  0  0  0  0
   -5.8410    6.4404   13.8835 C   0  0  0  0  0  0  0  0  0  0  0  0
   -5.8010    5.7263   12.7369 N   0  0  0  0  0  0  0  0  0  0  0  0
   -4.9043    4.4944   10.3584 O   0  0  0  0  0  0  0  0  0  0  0  0
  1  2  1  0
  2  3  1  0
  3  4  1  0
  4  5  2  0
  5  6  1  0
  6  7  2  0
  7  8  1  0
  8  9  2  0
  8 10  1  0
  5 11  1  0
 11 12  1  0
 12 13  2  0
 13 14  1  0
 14 15  2  0
 15 16  1  0
 11 17  1  0
  9  4  1  0
 16 12  1  0
M  END
$$$$
