
     RDKit          3D

 17 18  0  0  0  0  0  0  0  0999 V2000
    3.5169   -1.2731   18.4015 C   0  0  0  0  0  0  0  0  0  0  0  0
    3.4181   -1.4932   16.8863 C   0  0  0  0  0  0  0  0  0  0  0  0
    2.1290   -0.9285   16.3520 C   0  0  0  0  0  0  0  0  0  0  0  0
    2.0947   -0.9979   14.8748 C   0  0  0  0  0  0  0  0  0  0  0  0
    2.2321    0.1211   14.1007 C   0  0  0  0  0  0  0  0  0  0  0  0
    2.2455   -0.0018   12.7051 C   0  0  0  0  0  0  0  0  0  0  0  0
    2.1226   -1.2165   12.0876 C   0  0  0  0  0  0  0  0  0  0  0  0
    1.9829   -2.3364   12.8785 C   0  0  0  0  0  0  0  0  0  0  0  0
    1.9698   -2.2265   14.2303 C   0  0  0  0  0  0  0  0  0  0  0  0
    1.8588   -3.5586   12.2642 F   0  0  0  0  0  0  0  0  0  0  0  0
    2.3138    1.4868   14.6516 C   0  0  0  0  0  0  0  0  0  0  0  0
    1.4234    2.4331   13.8912 C   0  0  0  0  0  0  0  0  0  0  0  0
    0.1265    2.2217   13.6253 N   0  0  0  0  0  0  0  0  0  0  0  0
   -0.3771    3.2660   12.9269 C   0  0  0  0  0  0  0  0  0  0  0  0
    0.6784    4.1530   12.7654 C   0  0  0  0  0  0  0  0  0  0  0  0
    1.7661    3.6194   13.3639 N   0  0  0  0  0  0  0  0  0  0  0  0
    3.6509    1.9085   14.5397 O   0  0  0  0  0  0  0  0  0  0  0  0
  1  2  1  0
  2  3  1  0
  3  4  1  0
  4  5  2  0
  5  6  1  0
  6  7  2  0
  7  8  1  0
  8  9  2  0
  8 10  1  0
  5 11  1  0
 11 12  1  0
 12 13  2  0
 13 14  1  0
 14 15  2  0
 15 16  1  0
 11 17  1  0
  9  4  1  0
 16 12  1  0
M  END
$$$$
