
     RDKit          3D

 27 29  0  0  0  0  0  0  0  0999 V2000
    4.6710   -2.8367    6.4444 C   0  0  0  0  0  0  0  0  0  0  0  0
    4.2655   -2.4989    7.8710 C   0  0  0  0  0  0  0  0  0  0  0  0
    3.9617   -3.8044    8.5697 C   0  0  0  0  0  0  0  0  0  0  0  0
    3.4437   -3.4804    9.9302 C   0  0  0  0  0  0  0  0  0  0  0  0
    2.0813   -2.8410    9.7836 C   0  0  0  0  0  0  0  0  0  0  0  0
    2.3084   -1.6000    9.0601 N   0  0  0  0  0  0  0  0  0  0  0  0
    3.1330   -1.5151    7.8886 C   0  0  0  0  0  0  0  0  0  0  0  0
    1.7007   -0.4315    9.5448 C   0  0  0  0  0  0  0  0  0  0  0  0
    2.4044    0.4512   10.0811 O   0  0  0  0  0  0  0  0  0  0  0  0
    0.2626   -0.1861    9.4546 C   0  0  0  0  0  0  0  0  0  0  0  0
   -0.4696    0.1288   10.6075 C   0  0  0  0  0  0  0  0  0  0  0  0
   -1.8190    0.3863   10.5582 C   0  0  0  0  0  0  0  0  0  0  0  0
   -2.4884    0.3407    9.3669 C   0  0  0  0  0  0  0  0  0  0  0  0
   -1.8018    0.0333    8.2041 C   0  0  0  0  0  0  0  0  0  0  0  0
   -0.4458   -0.2215    8.2803 C   0  0  0  0  0  0  0  0  0  0  0  0
   -2.5287    0.6937   11.6878 F   0  0  0  0  0  0  0  0  0  0  0  0
    0.2195    0.1697   11.8129 O   0  0  0  0  0  0  0  0  0  0  0  0
   -0.5429    0.2373   13.0214 C   0  0  0  0  0  0  0  0  0  0  0  0
    1.0978   -3.6503    9.0341 C   0  0  0  0  0  0  0  0  0  0  0  0
   -0.2027   -3.1286    8.8400 N   0  0  0  0  0  0  0  0  0  0  0  0
   -1.3172   -3.1528    9.6827 C   0  0  0  0  0  0  0  0  0  0  0  0
   -1.1929   -3.5777   10.9490 N   0  0  0  0  0  0  0  0  0  0  0  0
   -2.2456   -3.6345   11.7825 C   0  0  0  0  0  0  0  0  0  0  0  0
   -3.5078   -3.2604   11.3840 C   0  0  0  0  0  0  0  0  0  0  0  0
   -3.6758   -2.8185   10.0918 C   0  0  0  0  0  0  0  0  0  0  0  0
   -2.5736   -2.7741    9.2670 C   0  0  0  0  0  0  0  0  0  0  0  0
   -4.9971   -3.3440   12.5728 Br  0  0  0  0  0  0  0  0  0  0  0  0
  1  2  1  0
  2  3  1  0
  3  4  1  0
  4  5  1  0
  5  6  1  0
  6  7  1  0
  6  8  1  0
  8  9  2  0
  8 10  1  0
 10 11  2  0
 11 12  1  0
 12 13  2  0
 13 14  1  0
 14 15  2  0
 12 16  1  0
 11 17  1  0
 17 18  1  0
  5 19  1  0
 19 20  1  0
 20 21  1  0
 21 22  2  0
 22 23  1  0
 23 24  2  0
 24 25  1  0
 25 26  2  0
 24 27  1  0
  7  2  1  0
 15 10  1  0
 26 21  1  0
M  END
$$$$
