
     RDKit          3D

 27 29  0  0  0  0  0  0  0  0999 V2000
   -2.2410   -4.6346   13.6466 C   0  0  0  0  0  0  0  0  0  0  0  0
   -2.2370   -3.7226   12.4291 C   0  0  0  0  0  0  0  0  0  0  0  0
   -1.8196   -4.5625   11.2437 C   0  0  0  0  0  0  0  0  0  0  0  0
   -1.6912   -3.6542   10.0677 C   0  0  0  0  0  0  0  0  0  0  0  0
   -0.4989   -2.7510   10.2889 C   0  0  0  0  0  0  0  0  0  0  0  0
   -0.8240   -1.9559   11.4625 N   0  0  0  0  0  0  0  0  0  0  0  0
   -1.3731   -2.5186   12.6631 C   0  0  0  0  0  0  0  0  0  0  0  0
   -0.6009   -0.5715   11.4057 C   0  0  0  0  0  0  0  0  0  0  0  0
   -0.3211    0.0503   12.4531 O   0  0  0  0  0  0  0  0  0  0  0  0
   -0.6794    0.1972   10.1649 C   0  0  0  0  0  0  0  0  0  0  0  0
   -1.9279    0.5038    9.6067 C   0  0  0  0  0  0  0  0  0  0  0  0
   -2.0414    1.2421    8.4528 C   0  0  0  0  0  0  0  0  0  0  0  0
   -0.9237    1.7013    7.8131 C   0  0  0  0  0  0  0  0  0  0  0  0
    0.3293    1.4202    8.3319 C   0  0  0  0  0  0  0  0  0  0  0  0
    0.4165    0.6762    9.4930 C   0  0  0  0  0  0  0  0  0  0  0  0
   -3.2638    1.5388    7.9125 F   0  0  0  0  0  0  0  0  0  0  0  0
   -3.0569    0.0301   10.2628 O   0  0  0  0  0  0  0  0  0  0  0  0
   -4.1451    0.9357   10.4680 C   0  0  0  0  0  0  0  0  0  0  0  0
    0.7739   -3.4596   10.5376 C   0  0  0  0  0  0  0  0  0  0  0  0
    1.9770   -2.7155   10.5307 N   0  0  0  0  0  0  0  0  0  0  0  0
    2.7562   -2.2741    9.4580 C   0  0  0  0  0  0  0  0  0  0  0  0
    2.5097   -2.7242    8.2185 N   0  0  0  0  0  0  0  0  0  0  0  0
    3.2505   -2.3384    7.1657 C   0  0  0  0  0  0  0  0  0  0  0  0
    4.3013   -1.4612    7.3001 C   0  0  0  0  0  0  0  0  0  0  0  0
    4.5855   -0.9770    8.5563 C   0  0  0  0  0  0  0  0  0  0  0  0
    3.8044   -1.3951    9.6109 C   0  0  0  0  0  0  0  0  0  0  0  0
    5.3482   -0.9183    5.8010 Br  0  0  0  0  0  0  0  0  0  0  0  0
  1  2  1  0
  2  3  1  0
  3  4  1  0
  4  5  1  0
  5  6  1  0
  6  7  1  0
  6  8  1  0
  8  9  2  0
  8 10  1  0
 10 11  2  0
 11 12  1  0
 12 13  2  0
 13 14  1  0
 14 15  2  0
 12 16  1  0
 11 17  1  0
 17 18  1  0
  5 19  1  0
 19 20  1  0
 20 21  1  0
 21 22  2  0
 22 23  1  0
 23 24  2  0
 24 25  1  0
 25 26  2  0
 24 27  1  0
  7  2  1  0
 15 10  1  0
 26 21  1  0
M  END
$$$$
