
     RDKit          3D

 27 29  0  0  0  0  0  0  0  0999 V2000
    3.0670   -6.0911    7.9877 C   0  0  0  0  0  0  0  0  0  0  0  0
    3.3164   -4.9920    9.0093 C   0  0  0  0  0  0  0  0  0  0  0  0
    2.6857   -5.4386   10.3083 C   0  0  0  0  0  0  0  0  0  0  0  0
    2.8145   -4.3174   11.2834 C   0  0  0  0  0  0  0  0  0  0  0  0
    1.9169   -3.1868   10.8336 C   0  0  0  0  0  0  0  0  0  0  0  0
    2.4466   -2.7551    9.5497 N   0  0  0  0  0  0  0  0  0  0  0  0
    2.8174   -3.6692    8.5073 C   0  0  0  0  0  0  0  0  0  0  0  0
    2.6137   -1.3788    9.3324 C   0  0  0  0  0  0  0  0  0  0  0  0
    2.3921   -0.5771   10.2652 O   0  0  0  0  0  0  0  0  0  0  0  0
    3.0408   -0.8214    8.0504 C   0  0  0  0  0  0  0  0  0  0  0  0
    2.0928   -0.5330    7.0593 C   0  0  0  0  0  0  0  0  0  0  0  0
    2.4549    0.0110    5.8500 C   0  0  0  0  0  0  0  0  0  0  0  0
    3.7666    0.2875    5.5813 C   0  0  0  0  0  0  0  0  0  0  0  0
    4.7350    0.0174    6.5339 C   0  0  0  0  0  0  0  0  0  0  0  0
    4.3452   -0.5294    7.7416 C   0  0  0  0  0  0  0  0  0  0  0  0
    1.5241    0.2910    4.8859 F   0  0  0  0  0  0  0  0  0  0  0  0
    0.7634   -0.8203    7.3414 O   0  0  0  0  0  0  0  0  0  0  0  0
   -0.2011    0.2221    7.1693 C   0  0  0  0  0  0  0  0  0  0  0  0
    0.4977   -3.5591   10.6567 C   0  0  0  0  0  0  0  0  0  0  0  0
   -0.4168   -2.5653   10.2357 N   0  0  0  0  0  0  0  0  0  0  0  0
   -1.6030   -2.1245   10.8286 C   0  0  0  0  0  0  0  0  0  0  0  0
   -2.0296   -2.6808   11.9723 N   0  0  0  0  0  0  0  0  0  0  0  0
   -3.1754   -2.2977   12.5608 C   0  0  0  0  0  0  0  0  0  0  0  0
   -3.9736   -1.3146   12.0239 C   0  0  0  0  0  0  0  0  0  0  0  0
   -3.5696   -0.7196   10.8509 C   0  0  0  0  0  0  0  0  0  0  0  0
   -2.3896   -1.1386   10.2773 C   0  0  0  0  0  0  0  0  0  0  0  0
   -5.5986   -0.7762   12.8651 Br  0  0  0  0  0  0  0  0  0  0  0  0
  1  2  1  0
  2  3  1  0
  3  4  1  0
  4  5  1  0
  5  6  1  0
  6  7  1  0
  6  8  1  0
  8  9  2  0
  8 10  1  0
 10 11  2  0
 11 12  1  0
 12 13  2  0
 13 14  1  0
 14 15  2  0
 12 16  1  0
 11 17  1  0
 17 18  1  0
  5 19  1  0
 19 20  1  0
 20 21  1  0
 21 22  2  0
 22 23  1  0
 23 24  2  0
 24 25  1  0
 25 26  2  0
 24 27  1  0
  7  2  1  0
 15 10  1  0
 26 21  1  0
M  END
$$$$
