
     RDKit          3D

 27 29  0  0  0  0  0  0  0  0999 V2000
   -2.9739   -1.7729   12.9718 C   0  0  0  0  0  0  0  0  0  0  0  0
   -2.4424   -1.8957   11.5518 C   0  0  0  0  0  0  0  0  0  0  0  0
   -2.4095   -3.3685   11.2135 C   0  0  0  0  0  0  0  0  0  0  0  0
   -1.7745   -3.5110    9.8715 C   0  0  0  0  0  0  0  0  0  0  0  0
   -0.3110   -3.1513    9.9942 C   0  0  0  0  0  0  0  0  0  0  0  0
   -0.2847   -1.7490   10.3793 N   0  0  0  0  0  0  0  0  0  0  0  0
   -1.1185   -1.2040   11.4124 C   0  0  0  0  0  0  0  0  0  0  0  0
    0.5896   -0.8916    9.6939 C   0  0  0  0  0  0  0  0  0  0  0  0
    1.1774    0.0166   10.3197 O   0  0  0  0  0  0  0  0  0  0  0  0
    0.8552   -1.0050    8.2610 C   0  0  0  0  0  0  0  0  0  0  0  0
    0.1475   -0.2086    7.3504 C   0  0  0  0  0  0  0  0  0  0  0  0
    0.3849   -0.2728    5.9980 C   0  0  0  0  0  0  0  0  0  0  0  0
    1.3302   -1.1269    5.5019 C   0  0  0  0  0  0  0  0  0  0  0  0
    2.0519   -1.9314    6.3681 C   0  0  0  0  0  0  0  0  0  0  0  0
    1.7943   -1.8481    7.7231 C   0  0  0  0  0  0  0  0  0  0  0  0
   -0.3095    0.5080    5.1135 F   0  0  0  0  0  0  0  0  0  0  0  0
   -0.8126    0.6536    7.8646 O   0  0  0  0  0  0  0  0  0  0  0  0
   -0.9520    1.9425    7.2599 C   0  0  0  0  0  0  0  0  0  0  0  0
    0.4331   -3.9315   11.0049 C   0  0  0  0  0  0  0  0  0  0  0  0
    1.6976   -4.4616   10.6565 N   0  0  0  0  0  0  0  0  0  0  0  0
    2.9272   -3.8195   10.4875 C   0  0  0  0  0  0  0  0  0  0  0  0
    2.9688   -2.5003   10.2473 N   0  0  0  0  0  0  0  0  0  0  0  0
    4.1308   -1.8521   10.0589 C   0  0  0  0  0  0  0  0  0  0  0  0
    5.3410   -2.5044   10.1021 C   0  0  0  0  0  0  0  0  0  0  0  0
    5.3397   -3.8585   10.3463 C   0  0  0  0  0  0  0  0  0  0  0  0
    4.1293   -4.4883   10.5343 C   0  0  0  0  0  0  0  0  0  0  0  0
    6.9862   -1.5774    9.8336 Br  0  0  0  0  0  0  0  0  0  0  0  0
  1  2  1  0
  2  3  1  0
  3  4  1  0
  4  5  1  0
  5  6  1  0
  6  7  1  0
  6  8  1  0
  8  9  2  0
  8 10  1  0
 10 11  2  0
 11 12  1  0
 12 13  2  0
 13 14  1  0
 14 15  2  0
 12 16  1  0
 11 17  1  0
 17 18  1  0
  5 19  1  0
 19 20  1  0
 20 21  1  0
 21 22  2  0
 22 23  1  0
 23 24  2  0
 24 25  1  0
 25 26  2  0
 24 27  1  0
  7  2  1  0
 15 10  1  0
 26 21  1  0
M  END
$$$$
