
     RDKit          3D

 27 29  0  0  0  0  0  0  0  0999 V2000
   -2.6882   -3.9657   13.7532 C   0  0  0  0  0  0  0  0  0  0  0  0
   -2.5814   -3.9728   12.2358 C   0  0  0  0  0  0  0  0  0  0  0  0
   -1.4840   -4.9457   11.8701 C   0  0  0  0  0  0  0  0  0  0  0  0
   -1.2846   -4.8698   10.3940 C   0  0  0  0  0  0  0  0  0  0  0  0
   -0.6795   -3.5246   10.0617 C   0  0  0  0  0  0  0  0  0  0  0  0
   -1.6771   -2.5407   10.4516 N   0  0  0  0  0  0  0  0  0  0  0  0
   -2.3733   -2.5848   11.7058 C   0  0  0  0  0  0  0  0  0  0  0  0
   -1.9784   -1.5106    9.5474 C   0  0  0  0  0  0  0  0  0  0  0  0
   -3.1357   -1.0400    9.5140 O   0  0  0  0  0  0  0  0  0  0  0  0
   -0.9939   -0.9476    8.6253 C   0  0  0  0  0  0  0  0  0  0  0  0
   -0.3175    0.2344    8.9561 C   0  0  0  0  0  0  0  0  0  0  0  0
    0.6297    0.7818    8.1237 C   0  0  0  0  0  0  0  0  0  0  0  0
    0.9387    0.1779    6.9366 C   0  0  0  0  0  0  0  0  0  0  0  0
    0.2930   -0.9919    6.5721 C   0  0  0  0  0  0  0  0  0  0  0  0
   -0.6550   -1.5219    7.4264 C   0  0  0  0  0  0  0  0  0  0  0  0
    1.2874    1.9366    8.4526 F   0  0  0  0  0  0  0  0  0  0  0  0
   -0.6409    0.8414   10.1629 O   0  0  0  0  0  0  0  0  0  0  0  0
   -1.9320    1.4445   10.2877 C   0  0  0  0  0  0  0  0  0  0  0  0
    0.5816   -3.2235   10.7710 C   0  0  0  0  0  0  0  0  0  0  0  0
    1.2203   -1.9858   10.5233 N   0  0  0  0  0  0  0  0  0  0  0  0
    2.1345   -1.6278    9.5288 C   0  0  0  0  0  0  0  0  0  0  0  0
    2.6270   -2.5617    8.7012 N   0  0  0  0  0  0  0  0  0  0  0  0
    3.5231   -2.2590    7.7466 C   0  0  0  0  0  0  0  0  0  0  0  0
    3.9847   -0.9761    7.5650 C   0  0  0  0  0  0  0  0  0  0  0  0
    3.5028    0.0102    8.3946 C   0  0  0  0  0  0  0  0  0  0  0  0
    2.5854   -0.3381    9.3611 C   0  0  0  0  0  0  0  0  0  0  0  0
    5.2569   -0.5543    6.2078 Br  0  0  0  0  0  0  0  0  0  0  0  0
  1  2  1  0
  2  3  1  0
  3  4  1  0
  4  5  1  0
  5  6  1  0
  6  7  1  0
  6  8  1  0
  8  9  2  0
  8 10  1  0
 10 11  2  0
 11 12  1  0
 12 13  2  0
 13 14  1  0
 14 15  2  0
 12 16  1  0
 11 17  1  0
 17 18  1  0
  5 19  1  0
 19 20  1  0
 20 21  1  0
 21 22  2  0
 22 23  1  0
 23 24  2  0
 24 25  1  0
 25 26  2  0
 24 27  1  0
  7  2  1  0
 15 10  1  0
 26 21  1  0
M  END
$$$$
