
     RDKit          3D

 27 29  0  0  0  0  0  0  0  0999 V2000
    1.9258   -5.9921   12.4497 C   0  0  0  0  0  0  0  0  0  0  0  0
    1.1405   -5.3746   11.3025 C   0  0  0  0  0  0  0  0  0  0  0  0
    2.0339   -5.4031   10.0837 C   0  0  0  0  0  0  0  0  0  0  0  0
    1.3231   -4.6889    8.9841 C   0  0  0  0  0  0  0  0  0  0  0  0
    1.2588   -3.2188    9.3318 C   0  0  0  0  0  0  0  0  0  0  0  0
    0.4540   -3.1385   10.5406 N   0  0  0  0  0  0  0  0  0  0  0  0
    0.6429   -4.0071   11.6673 C   0  0  0  0  0  0  0  0  0  0  0  0
   -0.5629   -2.1729   10.5949 C   0  0  0  0  0  0  0  0  0  0  0  0
   -0.3956   -1.0705   10.0303 O   0  0  0  0  0  0  0  0  0  0  0  0
   -1.8309   -2.3904   11.2888 C   0  0  0  0  0  0  0  0  0  0  0  0
   -2.9022   -1.5098   11.0863 C   0  0  0  0  0  0  0  0  0  0  0  0
   -4.1157   -1.6944   11.7051 C   0  0  0  0  0  0  0  0  0  0  0  0
   -4.3092   -2.7560   12.5447 C   0  0  0  0  0  0  0  0  0  0  0  0
   -3.2758   -3.6497   12.7719 C   0  0  0  0  0  0  0  0  0  0  0  0
   -2.0658   -3.4421   12.1378 C   0  0  0  0  0  0  0  0  0  0  0  0
   -5.1587   -0.8309   11.5030 F   0  0  0  0  0  0  0  0  0  0  0  0
   -2.6942   -0.4331   10.2338 O   0  0  0  0  0  0  0  0  0  0  0  0
   -3.6653   -0.1862    9.2128 C   0  0  0  0  0  0  0  0  0  0  0  0
    2.5697   -2.5896    9.5958 C   0  0  0  0  0  0  0  0  0  0  0  0
    2.6473   -1.1778    9.6424 N   0  0  0  0  0  0  0  0  0  0  0  0
    2.4953   -0.2339    8.6232 C   0  0  0  0  0  0  0  0  0  0  0  0
    1.5175    0.6817    8.6959 N   0  0  0  0  0  0  0  0  0  0  0  0
    1.3274    1.5919    7.7257 C   0  0  0  0  0  0  0  0  0  0  0  0
    2.1242    1.6356    6.6054 C   0  0  0  0  0  0  0  0  0  0  0  0
    3.1385    0.7125    6.4943 C   0  0  0  0  0  0  0  0  0  0  0  0
    3.3025   -0.2046    7.5087 C   0  0  0  0  0  0  0  0  0  0  0  0
    1.8481    2.9305    5.2324 Br  0  0  0  0  0  0  0  0  0  0  0  0
  1  2  1  0
  2  3  1  0
  3  4  1  0
  4  5  1  0
  5  6  1  0
  6  7  1  0
  6  8  1  0
  8  9  2  0
  8 10  1  0
 10 11  2  0
 11 12  1  0
 12 13  2  0
 13 14  1  0
 14 15  2  0
 12 16  1  0
 11 17  1  0
 17 18  1  0
  5 19  1  0
 19 20  1  0
 20 21  1  0
 21 22  2  0
 22 23  1  0
 23 24  2  0
 24 25  1  0
 25 26  2  0
 24 27  1  0
  7  2  1  0
 15 10  1  0
 26 21  1  0
M  END
$$$$
