
     RDKit          3D

 27 29  0  0  0  0  0  0  0  0999 V2000
   -3.4984   -5.2118   12.5198 C   0  0  0  0  0  0  0  0  0  0  0  0
   -3.3750   -3.8075   11.9483 C   0  0  0  0  0  0  0  0  0  0  0  0
   -3.4452   -3.9303   10.4434 C   0  0  0  0  0  0  0  0  0  0  0  0
   -3.2011   -2.5768    9.8665 C   0  0  0  0  0  0  0  0  0  0  0  0
   -1.7573   -2.2037   10.1163 C   0  0  0  0  0  0  0  0  0  0  0  0
   -1.6178   -2.1296   11.5621 N   0  0  0  0  0  0  0  0  0  0  0  0
   -2.1347   -3.1300   12.4518 C   0  0  0  0  0  0  0  0  0  0  0  0
   -0.9579   -1.0171   12.1065 C   0  0  0  0  0  0  0  0  0  0  0  0
   -0.0939   -1.1872   12.9934 O   0  0  0  0  0  0  0  0  0  0  0  0
   -1.2312    0.3555   11.6847 C   0  0  0  0  0  0  0  0  0  0  0  0
   -0.3582    1.0058   10.8020 C   0  0  0  0  0  0  0  0  0  0  0  0
   -0.5938    2.2884   10.3672 C   0  0  0  0  0  0  0  0  0  0  0  0
   -1.7005    2.9699   10.7915 C   0  0  0  0  0  0  0  0  0  0  0  0
   -2.5884    2.3632   11.6642 C   0  0  0  0  0  0  0  0  0  0  0  0
   -2.3291    1.0733   12.0864 C   0  0  0  0  0  0  0  0  0  0  0  0
    0.2626    2.9182    9.5045 F   0  0  0  0  0  0  0  0  0  0  0  0
    0.7646    0.3056   10.3792 O   0  0  0  0  0  0  0  0  0  0  0  0
    1.2858    0.5926    9.0784 C   0  0  0  0  0  0  0  0  0  0  0  0
   -0.7709   -3.1738    9.5968 C   0  0  0  0  0  0  0  0  0  0  0  0
    0.6057   -2.8673    9.7085 N   0  0  0  0  0  0  0  0  0  0  0  0
    1.5553   -2.6158    8.7146 C   0  0  0  0  0  0  0  0  0  0  0  0
    2.7960   -2.2333    9.0521 N   0  0  0  0  0  0  0  0  0  0  0  0
    3.7297   -1.9628    8.1242 C   0  0  0  0  0  0  0  0  0  0  0  0
    3.4655   -2.0630    6.7781 C   0  0  0  0  0  0  0  0  0  0  0  0
    2.2037   -2.4528    6.3919 C   0  0  0  0  0  0  0  0  0  0  0  0
    1.2734   -2.7216    7.3714 C   0  0  0  0  0  0  0  0  0  0  0  0
    4.7960   -1.6771    5.4670 Br  0  0  0  0  0  0  0  0  0  0  0  0
  1  2  1  0
  2  3  1  0
  3  4  1  0
  4  5  1  0
  5  6  1  0
  6  7  1  0
  6  8  1  0
  8  9  2  0
  8 10  1  0
 10 11  2  0
 11 12  1  0
 12 13  2  0
 13 14  1  0
 14 15  2  0
 12 16  1  0
 11 17  1  0
 17 18  1  0
  5 19  1  0
 19 20  1  0
 20 21  1  0
 21 22  2  0
 22 23  1  0
 23 24  2  0
 24 25  1  0
 25 26  2  0
 24 27  1  0
  7  2  1  0
 15 10  1  0
 26 21  1  0
M  END
$$$$
