
     RDKit          3D

 27 29  0  0  0  0  0  0  0  0999 V2000
   -2.7197   -4.5689   13.4063 C   0  0  0  0  0  0  0  0  0  0  0  0
   -2.6307   -3.6495   12.1977 C   0  0  0  0  0  0  0  0  0  0  0  0
   -2.1899   -4.4952   11.0251 C   0  0  0  0  0  0  0  0  0  0  0  0
   -1.9787   -3.5841    9.8633 C   0  0  0  0  0  0  0  0  0  0  0  0
   -0.7675   -2.7237   10.1442 C   0  0  0  0  0  0  0  0  0  0  0  0
   -1.1172   -1.9257   11.3088 N   0  0  0  0  0  0  0  0  0  0  0  0
   -1.7377   -2.4773   12.4794 C   0  0  0  0  0  0  0  0  0  0  0  0
   -0.8450   -0.5495   11.2732 C   0  0  0  0  0  0  0  0  0  0  0  0
   -0.6163    0.0605   12.3398 O   0  0  0  0  0  0  0  0  0  0  0  0
   -0.8137    0.2239   10.0332 C   0  0  0  0  0  0  0  0  0  0  0  0
   -2.0053    0.5066    9.3518 C   0  0  0  0  0  0  0  0  0  0  0  0
   -2.0170    1.2485    8.1946 C   0  0  0  0  0  0  0  0  0  0  0  0
   -0.8504    1.7350    7.6735 C   0  0  0  0  0  0  0  0  0  0  0  0
    0.3492    1.4781    8.3162 C   0  0  0  0  0  0  0  0  0  0  0  0
    0.3341    0.7300    9.4779 C   0  0  0  0  0  0  0  0  0  0  0  0
   -3.1844    1.5217    7.5336 F   0  0  0  0  0  0  0  0  0  0  0  0
   -3.1846    0.0054    9.8881 O   0  0  0  0  0  0  0  0  0  0  0  0
   -4.1537    0.9395   10.3723 C   0  0  0  0  0  0  0  0  0  0  0  0
    0.4683   -3.4771   10.4430 C   0  0  0  0  0  0  0  0  0  0  0  0
    1.6973   -2.7774   10.4791 N   0  0  0  0  0  0  0  0  0  0  0  0
    2.5426   -2.3887    9.4364 C   0  0  0  0  0  0  0  0  0  0  0  0
    2.5231   -3.0544    8.2719 N   0  0  0  0  0  0  0  0  0  0  0  0
    3.3356   -2.7229    7.2541 C   0  0  0  0  0  0  0  0  0  0  0  0
    4.2315   -1.6836    7.3496 C   0  0  0  0  0  0  0  0  0  0  0  0
    4.2812   -0.9762    8.5287 C   0  0  0  0  0  0  0  0  0  0  0  0
    3.4332   -1.3452    9.5493 C   0  0  0  0  0  0  0  0  0  0  0  0
    5.3816   -1.2192    5.9005 Br  0  0  0  0  0  0  0  0  0  0  0  0
  1  2  1  0
  2  3  1  0
  3  4  1  0
  4  5  1  0
  5  6  1  0
  6  7  1  0
  6  8  1  0
  8  9  2  0
  8 10  1  0
 10 11  2  0
 11 12  1  0
 12 13  2  0
 13 14  1  0
 14 15  2  0
 12 16  1  0
 11 17  1  0
 17 18  1  0
  5 19  1  0
 19 20  1  0
 20 21  1  0
 21 22  2  0
 22 23  1  0
 23 24  2  0
 24 25  1  0
 25 26  2  0
 24 27  1  0
  7  2  1  0
 15 10  1  0
 26 21  1  0
M  END
$$$$
