
     RDKit          3D

 27 29  0  0  0  0  0  0  0  0999 V2000
   -0.3974   -5.5874   12.5250 C   0  0  0  0  0  0  0  0  0  0  0  0
    0.4749   -4.3814   12.2109 C   0  0  0  0  0  0  0  0  0  0  0  0
   -0.4522   -3.2302   11.8946 C   0  0  0  0  0  0  0  0  0  0  0  0
    0.3889   -2.0762   11.4643 C   0  0  0  0  0  0  0  0  0  0  0  0
    1.0022   -2.4056   10.1220 C   0  0  0  0  0  0  0  0  0  0  0  0
    1.8647   -3.5526   10.3578 N   0  0  0  0  0  0  0  0  0  0  0  0
    1.4555   -4.6975   11.1204 C   0  0  0  0  0  0  0  0  0  0  0  0
    3.1621   -3.5252    9.8235 C   0  0  0  0  0  0  0  0  0  0  0  0
    4.0205   -4.3270   10.2503 O   0  0  0  0  0  0  0  0  0  0  0  0
    3.5717   -2.5925    8.7752 C   0  0  0  0  0  0  0  0  0  0  0  0
    3.9755   -1.2929    9.1102 C   0  0  0  0  0  0  0  0  0  0  0  0
    4.3871   -0.3954    8.1539 C   0  0  0  0  0  0  0  0  0  0  0  0
    4.4126   -0.7539    6.8348 C   0  0  0  0  0  0  0  0  0  0  0  0
    4.0212   -2.0289    6.4614 C   0  0  0  0  0  0  0  0  0  0  0  0
    3.6118   -2.9124    7.4418 C   0  0  0  0  0  0  0  0  0  0  0  0
    4.7809    0.8727    8.4874 F   0  0  0  0  0  0  0  0  0  0  0  0
    3.9432   -0.9380   10.4528 O   0  0  0  0  0  0  0  0  0  0  0  0
    3.2445    0.2562   10.8162 C   0  0  0  0  0  0  0  0  0  0  0  0
    0.0276   -2.7576    9.0684 C   0  0  0  0  0  0  0  0  0  0  0  0
    0.2595   -2.3008    7.7497 N   0  0  0  0  0  0  0  0  0  0  0  0
    0.0473   -1.0411    7.1832 C   0  0  0  0  0  0  0  0  0  0  0  0
   -0.4603   -0.0468    7.9270 N   0  0  0  0  0  0  0  0  0  0  0  0
   -0.6974    1.1716    7.4119 C   0  0  0  0  0  0  0  0  0  0  0  0
   -0.4329    1.4667    6.0947 C   0  0  0  0  0  0  0  0  0  0  0  0
    0.0887    0.4725    5.2993 C   0  0  0  0  0  0  0  0  0  0  0  0
    0.3182   -0.7633    5.8626 C   0  0  0  0  0  0  0  0  0  0  0  0
   -0.7723    3.1984    5.3708 Br  0  0  0  0  0  0  0  0  0  0  0  0
  1  2  1  0
  2  3  1  0
  3  4  1  0
  4  5  1  0
  5  6  1  0
  6  7  1  0
  6  8  1  0
  8  9  2  0
  8 10  1  0
 10 11  2  0
 11 12  1  0
 12 13  2  0
 13 14  1  0
 14 15  2  0
 12 16  1  0
 11 17  1  0
 17 18  1  0
  5 19  1  0
 19 20  1  0
 20 21  1  0
 21 22  2  0
 22 23  1  0
 23 24  2  0
 24 25  1  0
 25 26  2  0
 24 27  1  0
  7  2  1  0
 15 10  1  0
 26 21  1  0
M  END
$$$$
