
     RDKit          3D

 27 29  0  0  0  0  0  0  0  0999 V2000
    5.7993   -1.1402    6.4361 C   0  0  0  0  0  0  0  0  0  0  0  0
    4.6287   -2.0463    6.7863 C   0  0  0  0  0  0  0  0  0  0  0  0
    3.4442   -1.5803    5.9711 C   0  0  0  0  0  0  0  0  0  0  0  0
    2.2590   -2.3797    6.3962 C   0  0  0  0  0  0  0  0  0  0  0  0
    1.8899   -1.9754    7.8056 C   0  0  0  0  0  0  0  0  0  0  0  0
    3.0282   -2.3494    8.6299 N   0  0  0  0  0  0  0  0  0  0  0  0
    4.3868   -2.0629    8.2668 C   0  0  0  0  0  0  0  0  0  0  0  0
    2.7796   -3.0355    9.8285 C   0  0  0  0  0  0  0  0  0  0  0  0
    3.4932   -4.0140   10.1371 O   0  0  0  0  0  0  0  0  0  0  0  0
    1.7112   -2.6609   10.7532 C   0  0  0  0  0  0  0  0  0  0  0  0
    0.4120   -3.1498   10.5603 C   0  0  0  0  0  0  0  0  0  0  0  0
   -0.6130   -2.8361   11.4208 C   0  0  0  0  0  0  0  0  0  0  0  0
   -0.3865   -2.0283   12.5003 C   0  0  0  0  0  0  0  0  0  0  0  0
    0.8834   -1.5240   12.7269 C   0  0  0  0  0  0  0  0  0  0  0  0
    1.8965   -1.8543   11.8473 C   0  0  0  0  0  0  0  0  0  0  0  0
   -1.8800   -3.3172   11.2272 F   0  0  0  0  0  0  0  0  0  0  0  0
    0.1921   -3.9674    9.4590 O   0  0  0  0  0  0  0  0  0  0  0  0
   -1.1120   -4.5301    9.2888 C   0  0  0  0  0  0  0  0  0  0  0  0
    1.6322   -0.5313    7.9854 C   0  0  0  0  0  0  0  0  0  0  0  0
    0.3296   -0.0386    7.7370 N   0  0  0  0  0  0  0  0  0  0  0  0
   -0.7018    0.2684    8.6285 C   0  0  0  0  0  0  0  0  0  0  0  0
   -0.4146    0.7288    9.8553 N   0  0  0  0  0  0  0  0  0  0  0  0
   -1.3786    1.0152   10.7468 C   0  0  0  0  0  0  0  0  0  0  0  0
   -2.7120    0.8524   10.4512 C   0  0  0  0  0  0  0  0  0  0  0  0
   -3.0470    0.3821    9.2023 C   0  0  0  0  0  0  0  0  0  0  0  0
   -2.0316    0.0997    8.3156 C   0  0  0  0  0  0  0  0  0  0  0  0
   -4.0746    1.2610   11.7220 Br  0  0  0  0  0  0  0  0  0  0  0  0
  1  2  1  0
  2  3  1  0
  3  4  1  0
  4  5  1  0
  5  6  1  0
  6  7  1  0
  6  8  1  0
  8  9  2  0
  8 10  1  0
 10 11  2  0
 11 12  1  0
 12 13  2  0
 13 14  1  0
 14 15  2  0
 12 16  1  0
 11 17  1  0
 17 18  1  0
  5 19  1  0
 19 20  1  0
 20 21  1  0
 21 22  2  0
 22 23  1  0
 23 24  2  0
 24 25  1  0
 25 26  2  0
 24 27  1  0
  7  2  1  0
 15 10  1  0
 26 21  1  0
M  END
$$$$
