
     RDKit          3D

 27 29  0  0  0  0  0  0  0  0999 V2000
   -3.6713   -3.7445   12.1786 C   0  0  0  0  0  0  0  0  0  0  0  0
   -2.1535   -3.7261   12.0783 C   0  0  0  0  0  0  0  0  0  0  0  0
   -1.6645   -2.5705   12.9211 C   0  0  0  0  0  0  0  0  0  0  0  0
   -0.1888   -2.4648   12.7325 C   0  0  0  0  0  0  0  0  0  0  0  0
    0.0807   -2.0006   11.3189 C   0  0  0  0  0  0  0  0  0  0  0  0
   -0.4279   -3.0565   10.4577 N   0  0  0  0  0  0  0  0  0  0  0  0
   -1.7107   -3.6719   10.6459 C   0  0  0  0  0  0  0  0  0  0  0  0
    0.3857   -3.4993    9.4035 C   0  0  0  0  0  0  0  0  0  0  0  0
   -0.0749   -4.3060    8.5675 O   0  0  0  0  0  0  0  0  0  0  0  0
    1.7687   -3.0601    9.2269 C   0  0  0  0  0  0  0  0  0  0  0  0
    2.1544   -2.4132    8.0449 C   0  0  0  0  0  0  0  0  0  0  0  0
    3.4404   -1.9677    7.8520 C   0  0  0  0  0  0  0  0  0  0  0  0
    4.3872   -2.1475    8.8219 C   0  0  0  0  0  0  0  0  0  0  0  0
    4.0470   -2.7823   10.0049 C   0  0  0  0  0  0  0  0  0  0  0  0
    2.7477   -3.2208   10.1744 C   0  0  0  0  0  0  0  0  0  0  0  0
    3.8111   -1.3361    6.6953 F   0  0  0  0  0  0  0  0  0  0  0  0
    1.1857   -2.2381    7.0649 O   0  0  0  0  0  0  0  0  0  0  0  0
    0.9581   -3.3097    6.1450 C   0  0  0  0  0  0  0  0  0  0  0  0
   -0.5810   -0.7318   10.9498 C   0  0  0  0  0  0  0  0  0  0  0  0
   -0.6599   -0.3809    9.5816 N   0  0  0  0  0  0  0  0  0  0  0  0
    0.2894    0.2194    8.7501 C   0  0  0  0  0  0  0  0  0  0  0  0
    1.4516    0.6529    9.2608 N   0  0  0  0  0  0  0  0  0  0  0  0
    2.3797    1.2534    8.4966 C   0  0  0  0  0  0  0  0  0  0  0  0
    2.1899    1.4565    7.1495 C   0  0  0  0  0  0  0  0  0  0  0  0
    1.0098    1.0254    6.5884 C   0  0  0  0  0  0  0  0  0  0  0  0
    0.0827    0.4143    7.4033 C   0  0  0  0  0  0  0  0  0  0  0  0
    3.5119    2.3097    6.0713 Br  0  0  0  0  0  0  0  0  0  0  0  0
  1  2  1  0
  2  3  1  0
  3  4  1  0
  4  5  1  0
  5  6  1  0
  6  7  1  0
  6  8  1  0
  8  9  2  0
  8 10  1  0
 10 11  2  0
 11 12  1  0
 12 13  2  0
 13 14  1  0
 14 15  2  0
 12 16  1  0
 11 17  1  0
 17 18  1  0
  5 19  1  0
 19 20  1  0
 20 21  1  0
 21 22  2  0
 22 23  1  0
 23 24  2  0
 24 25  1  0
 25 26  2  0
 24 27  1  0
  7  2  1  0
 15 10  1  0
 26 21  1  0
M  END
$$$$
