
     RDKit          3D

 27 29  0  0  0  0  0  0  0  0999 V2000
    3.9802   -0.8249   11.6460 C   0  0  0  0  0  0  0  0  0  0  0  0
    3.4847   -2.1738   11.1470 C   0  0  0  0  0  0  0  0  0  0  0  0
    4.3905   -2.5894   10.0105 C   0  0  0  0  0  0  0  0  0  0  0  0
    3.8417   -3.8495    9.4313 C   0  0  0  0  0  0  0  0  0  0  0  0
    2.5384   -3.5281    8.7354 C   0  0  0  0  0  0  0  0  0  0  0  0
    1.6415   -3.0630    9.7817 N   0  0  0  0  0  0  0  0  0  0  0  0
    2.0310   -2.1103   10.7818 C   0  0  0  0  0  0  0  0  0  0  0  0
    0.3397   -3.5859    9.8172 C   0  0  0  0  0  0  0  0  0  0  0  0
    0.0044   -4.4594    8.9886 O   0  0  0  0  0  0  0  0  0  0  0  0
   -0.6643   -3.1565   10.7889 C   0  0  0  0  0  0  0  0  0  0  0  0
   -1.4349   -2.0119   10.5432 C   0  0  0  0  0  0  0  0  0  0  0  0
   -2.4023   -1.5898   11.4238 C   0  0  0  0  0  0  0  0  0  0  0  0
   -2.6392   -2.2859   12.5764 C   0  0  0  0  0  0  0  0  0  0  0  0
   -1.8994   -3.4227   12.8570 C   0  0  0  0  0  0  0  0  0  0  0  0
   -0.9329   -3.8262   11.9558 C   0  0  0  0  0  0  0  0  0  0  0  0
   -3.1522   -0.4711   11.1780 F   0  0  0  0  0  0  0  0  0  0  0  0
   -1.1843   -1.3104    9.3708 O   0  0  0  0  0  0  0  0  0  0  0  0
   -1.6818    0.0269    9.2678 C   0  0  0  0  0  0  0  0  0  0  0  0
    2.6354   -2.4802    7.6978 C   0  0  0  0  0  0  0  0  0  0  0  0
    1.4747   -2.1446    6.9621 N   0  0  0  0  0  0  0  0  0  0  0  0
    0.8710   -0.9021    6.7506 C   0  0  0  0  0  0  0  0  0  0  0  0
    1.5602    0.2267    6.9753 N   0  0  0  0  0  0  0  0  0  0  0  0
    1.0071    1.4392    6.8029 C   0  0  0  0  0  0  0  0  0  0  0  0
   -0.2951    1.5903    6.3867 C   0  0  0  0  0  0  0  0  0  0  0  0
   -1.0349    0.4555    6.1456 C   0  0  0  0  0  0  0  0  0  0  0  0
   -0.4339   -0.7695    6.3332 C   0  0  0  0  0  0  0  0  0  0  0  0
   -1.0733    3.3148    6.1443 Br  0  0  0  0  0  0  0  0  0  0  0  0
  1  2  1  0
  2  3  1  0
  3  4  1  0
  4  5  1  0
  5  6  1  0
  6  7  1  0
  6  8  1  0
  8  9  2  0
  8 10  1  0
 10 11  2  0
 11 12  1  0
 12 13  2  0
 13 14  1  0
 14 15  2  0
 12 16  1  0
 11 17  1  0
 17 18  1  0
  5 19  1  0
 19 20  1  0
 20 21  1  0
 21 22  2  0
 22 23  1  0
 23 24  2  0
 24 25  1  0
 25 26  2  0
 24 27  1  0
  7  2  1  0
 15 10  1  0
 26 21  1  0
M  END
$$$$
