
     RDKit          3D

 27 29  0  0  0  0  0  0  0  0999 V2000
   -1.7937   -4.4257   11.2621 C   0  0  0  0  0  0  0  0  0  0  0  0
   -0.4258   -4.4233   10.5967 C   0  0  0  0  0  0  0  0  0  0  0  0
    0.5939   -4.1319   11.6737 C   0  0  0  0  0  0  0  0  0  0  0  0
    1.9255   -4.0038   11.0141 C   0  0  0  0  0  0  0  0  0  0  0  0
    1.9283   -2.7401   10.1837 C   0  0  0  0  0  0  0  0  0  0  0  0
    0.9153   -2.9434    9.1602 N   0  0  0  0  0  0  0  0  0  0  0  0
   -0.3916   -3.4648    9.4431 C   0  0  0  0  0  0  0  0  0  0  0  0
    1.2433   -2.6261    7.8331 C   0  0  0  0  0  0  0  0  0  0  0  0
    0.3355   -2.5398    6.9785 O   0  0  0  0  0  0  0  0  0  0  0  0
    2.6147   -2.3866    7.3876 C   0  0  0  0  0  0  0  0  0  0  0  0
    2.9764   -1.1354    6.8700 C   0  0  0  0  0  0  0  0  0  0  0  0
    4.2610   -0.8670    6.4609 C   0  0  0  0  0  0  0  0  0  0  0  0
    5.2299   -1.8274    6.5502 C   0  0  0  0  0  0  0  0  0  0  0  0
    4.9139   -3.0774    7.0561 C   0  0  0  0  0  0  0  0  0  0  0  0
    3.6155   -3.3221    7.4605 C   0  0  0  0  0  0  0  0  0  0  0  0
    4.6084    0.3574    5.9565 F   0  0  0  0  0  0  0  0  0  0  0  0
    1.9840   -0.1676    6.7810 O   0  0  0  0  0  0  0  0  0  0  0  0
    2.1288    1.0187    7.5671 C   0  0  0  0  0  0  0  0  0  0  0  0
    1.6007   -1.5092   10.9330 C   0  0  0  0  0  0  0  0  0  0  0  0
    1.1530   -0.3762   10.2137 N   0  0  0  0  0  0  0  0  0  0  0  0
   -0.0803    0.2802   10.2449 C   0  0  0  0  0  0  0  0  0  0  0  0
   -0.6383    0.6062   11.4204 N   0  0  0  0  0  0  0  0  0  0  0  0
   -1.8322    1.2192   11.4906 C   0  0  0  0  0  0  0  0  0  0  0  0
   -2.5476    1.5461   10.3623 C   0  0  0  0  0  0  0  0  0  0  0  0
   -2.0081    1.2280    9.1372 C   0  0  0  0  0  0  0  0  0  0  0  0
   -0.7825    0.6003    9.1051 C   0  0  0  0  0  0  0  0  0  0  0  0
   -4.2417    2.4160   10.4702 Br  0  0  0  0  0  0  0  0  0  0  0  0
  1  2  1  0
  2  3  1  0
  3  4  1  0
  4  5  1  0
  5  6  1  0
  6  7  1  0
  6  8  1  0
  8  9  2  0
  8 10  1  0
 10 11  2  0
 11 12  1  0
 12 13  2  0
 13 14  1  0
 14 15  2  0
 12 16  1  0
 11 17  1  0
 17 18  1  0
  5 19  1  0
 19 20  1  0
 20 21  1  0
 21 22  2  0
 22 23  1  0
 23 24  2  0
 24 25  1  0
 25 26  2  0
 24 27  1  0
  7  2  1  0
 15 10  1  0
 26 21  1  0
M  END
$$$$
