
     RDKit          3D

 27 29  0  0  0  0  0  0  0  0999 V2000
    6.2415   -2.1185    6.5529 C   0  0  0  0  0  0  0  0  0  0  0  0
    4.8404   -2.6698    6.7696 C   0  0  0  0  0  0  0  0  0  0  0  0
    3.8845   -1.7630    6.0288 C   0  0  0  0  0  0  0  0  0  0  0  0
    2.4979   -2.2194    6.3348 C   0  0  0  0  0  0  0  0  0  0  0  0
    2.2050   -1.9185    7.7873 C   0  0  0  0  0  0  0  0  0  0  0  0
    3.1438   -2.7259    8.5502 N   0  0  0  0  0  0  0  0  0  0  0  0
    4.5405   -2.8142    8.2324 C   0  0  0  0  0  0  0  0  0  0  0  0
    2.6507   -3.4619    9.6385 C   0  0  0  0  0  0  0  0  0  0  0  0
    3.4476   -4.0879   10.3700 O   0  0  0  0  0  0  0  0  0  0  0  0
    1.2289   -3.5378    9.9694 C   0  0  0  0  0  0  0  0  0  0  0  0
    0.6997   -2.7276   10.9831 C   0  0  0  0  0  0  0  0  0  0  0  0
   -0.6358   -2.7565   11.3075 C   0  0  0  0  0  0  0  0  0  0  0  0
   -1.4916   -3.5878   10.6399 C   0  0  0  0  0  0  0  0  0  0  0  0
   -1.0088   -4.4049    9.6312 C   0  0  0  0  0  0  0  0  0  0  0  0
    0.3376   -4.3571    9.3241 C   0  0  0  0  0  0  0  0  0  0  0  0
   -1.1470   -1.9623   12.2986 F   0  0  0  0  0  0  0  0  0  0  0  0
    1.5781   -1.8887   11.6571 O   0  0  0  0  0  0  0  0  0  0  0  0
    1.0418   -0.7265   12.2958 C   0  0  0  0  0  0  0  0  0  0  0  0
    2.3809   -0.5023    8.1714 C   0  0  0  0  0  0  0  0  0  0  0  0
    1.4745    0.0673    9.0962 N   0  0  0  0  0  0  0  0  0  0  0  0
    0.1146    0.3590    8.9605 C   0  0  0  0  0  0  0  0  0  0  0  0
   -0.5770    0.8394   10.0048 N   0  0  0  0  0  0  0  0  0  0  0  0
   -1.8900    1.1122    9.9182 C   0  0  0  0  0  0  0  0  0  0  0  0
   -2.5972    0.9143    8.7552 C   0  0  0  0  0  0  0  0  0  0  0  0
   -1.9226    0.4227    7.6614 C   0  0  0  0  0  0  0  0  0  0  0  0
   -0.5775    0.1551    7.7883 C   0  0  0  0  0  0  0  0  0  0  0  0
   -4.4609    1.3038    8.6402 Br  0  0  0  0  0  0  0  0  0  0  0  0
  1  2  1  0
  2  3  1  0
  3  4  1  0
  4  5  1  0
  5  6  1  0
  6  7  1  0
  6  8  1  0
  8  9  2  0
  8 10  1  0
 10 11  2  0
 11 12  1  0
 12 13  2  0
 13 14  1  0
 14 15  2  0
 12 16  1  0
 11 17  1  0
 17 18  1  0
  5 19  1  0
 19 20  1  0
 20 21  1  0
 21 22  2  0
 22 23  1  0
 23 24  2  0
 24 25  1  0
 25 26  2  0
 24 27  1  0
  7  2  1  0
 15 10  1  0
 26 21  1  0
M  END
$$$$
