
     RDKit          3D

 27 29  0  0  0  0  0  0  0  0999 V2000
   -0.9523   -5.5228   10.1691 C   0  0  0  0  0  0  0  0  0  0  0  0
    0.3208   -4.7969    9.7612 C   0  0  0  0  0  0  0  0  0  0  0  0
    1.2474   -4.8159   10.9553 C   0  0  0  0  0  0  0  0  0  0  0  0
    2.4478   -4.0007   10.6102 C   0  0  0  0  0  0  0  0  0  0  0  0
    2.0308   -2.5502   10.5187 C   0  0  0  0  0  0  0  0  0  0  0  0
    1.0859   -2.4845    9.4150 N   0  0  0  0  0  0  0  0  0  0  0  0
    0.0131   -3.4224    9.2446 C   0  0  0  0  0  0  0  0  0  0  0  0
    1.2459   -1.4615    8.4678 C   0  0  0  0  0  0  0  0  0  0  0  0
    0.2562   -0.7792    8.1257 O   0  0  0  0  0  0  0  0  0  0  0  0
    2.5311   -1.1446    7.8478 C   0  0  0  0  0  0  0  0  0  0  0  0
    3.0527   -1.9769    6.8481 C   0  0  0  0  0  0  0  0  0  0  0  0
    4.2478   -1.6993    6.2280 C   0  0  0  0  0  0  0  0  0  0  0  0
    4.9661   -0.5895    6.5766 C   0  0  0  0  0  0  0  0  0  0  0  0
    4.4857    0.2590    7.5602 C   0  0  0  0  0  0  0  0  0  0  0  0
    3.2820   -0.0421    8.1682 C   0  0  0  0  0  0  0  0  0  0  0  0
    4.7520   -2.5160    5.2518 F   0  0  0  0  0  0  0  0  0  0  0  0
    2.3165   -3.1032    6.5034 O   0  0  0  0  0  0  0  0  0  0  0  0
    3.0114   -4.2074    5.9168 C   0  0  0  0  0  0  0  0  0  0  0  0
    1.3754   -2.0193   11.7322 C   0  0  0  0  0  0  0  0  0  0  0  0
    0.9326   -0.6757   11.7313 N   0  0  0  0  0  0  0  0  0  0  0  0
    1.4113    0.4303   12.4388 C   0  0  0  0  0  0  0  0  0  0  0  0
    2.4022    0.2799   13.3305 N   0  0  0  0  0  0  0  0  0  0  0  0
    2.8745    1.3159   14.0443 C   0  0  0  0  0  0  0  0  0  0  0  0
    2.3688    2.5869   13.9004 C   0  0  0  0  0  0  0  0  0  0  0  0
    1.3513    2.7816   12.9949 C   0  0  0  0  0  0  0  0  0  0  0  0
    0.8935    1.6959   12.2817 C   0  0  0  0  0  0  0  0  0  0  0  0
    3.0444    4.0524   14.9174 Br  0  0  0  0  0  0  0  0  0  0  0  0
  1  2  1  0
  2  3  1  0
  3  4  1  0
  4  5  1  0
  5  6  1  0
  6  7  1  0
  6  8  1  0
  8  9  2  0
  8 10  1  0
 10 11  2  0
 11 12  1  0
 12 13  2  0
 13 14  1  0
 14 15  2  0
 12 16  1  0
 11 17  1  0
 17 18  1  0
  5 19  1  0
 19 20  1  0
 20 21  1  0
 21 22  2  0
 22 23  1  0
 23 24  2  0
 24 25  1  0
 25 26  2  0
 24 27  1  0
  7  2  1  0
 15 10  1  0
 26 21  1  0
M  END
$$$$
