
     RDKit          3D

 27 29  0  0  0  0  0  0  0  0999 V2000
   -1.9568   -4.7089    9.3259 C   0  0  0  0  0  0  0  0  0  0  0  0
   -0.9717   -4.3624   10.4320 C   0  0  0  0  0  0  0  0  0  0  0  0
   -1.7828   -3.9486   11.6385 C   0  0  0  0  0  0  0  0  0  0  0  0
   -0.8295   -3.4878   12.6889 C   0  0  0  0  0  0  0  0  0  0  0  0
   -0.2038   -2.1897   12.2307 C   0  0  0  0  0  0  0  0  0  0  0  0
    0.5459   -2.5205   11.0292 N   0  0  0  0  0  0  0  0  0  0  0  0
    0.0125   -3.3287    9.9699 C   0  0  0  0  0  0  0  0  0  0  0  0
    1.8575   -2.0349   10.9137 C   0  0  0  0  0  0  0  0  0  0  0  0
    2.3169   -1.2857   11.8022 O   0  0  0  0  0  0  0  0  0  0  0  0
    2.7320   -2.3640    9.7895 C   0  0  0  0  0  0  0  0  0  0  0  0
    2.3882   -1.9623    8.4915 C   0  0  0  0  0  0  0  0  0  0  0  0
    3.1959   -2.2354    7.4133 C   0  0  0  0  0  0  0  0  0  0  0  0
    4.3701   -2.9149    7.5835 C   0  0  0  0  0  0  0  0  0  0  0  0
    4.7465   -3.3297    8.8502 C   0  0  0  0  0  0  0  0  0  0  0  0
    3.9172   -3.0428    9.9176 C   0  0  0  0  0  0  0  0  0  0  0  0
    2.8549   -1.8401    6.1477 F   0  0  0  0  0  0  0  0  0  0  0  0
    1.1920   -1.2752    8.3291 O   0  0  0  0  0  0  0  0  0  0  0  0
    0.6967   -1.0921    6.9996 C   0  0  0  0  0  0  0  0  0  0  0  0
   -1.1706   -1.1209   11.9036 C   0  0  0  0  0  0  0  0  0  0  0  0
   -0.6771    0.1672   11.5898 N   0  0  0  0  0  0  0  0  0  0  0  0
   -0.5167    0.7923   10.3503 C   0  0  0  0  0  0  0  0  0  0  0  0
   -1.2943    0.4413    9.3151 N   0  0  0  0  0  0  0  0  0  0  0  0
   -1.1557    1.0053    8.1033 C   0  0  0  0  0  0  0  0  0  0  0  0
   -0.2097    1.9730    7.8571 C   0  0  0  0  0  0  0  0  0  0  0  0
    0.6073    2.3602    8.8943 C   0  0  0  0  0  0  0  0  0  0  0  0
    0.4354    1.7598   10.1218 C   0  0  0  0  0  0  0  0  0  0  0  0
   -0.0189    2.7688    6.1341 Br  0  0  0  0  0  0  0  0  0  0  0  0
  1  2  1  0
  2  3  1  0
  3  4  1  0
  4  5  1  0
  5  6  1  0
  6  7  1  0
  6  8  1  0
  8  9  2  0
  8 10  1  0
 10 11  2  0
 11 12  1  0
 12 13  2  0
 13 14  1  0
 14 15  2  0
 12 16  1  0
 11 17  1  0
 17 18  1  0
  5 19  1  0
 19 20  1  0
 20 21  1  0
 21 22  2  0
 22 23  1  0
 23 24  2  0
 24 25  1  0
 25 26  2  0
 24 27  1  0
  7  2  1  0
 15 10  1  0
 26 21  1  0
M  END
$$$$
