
     RDKit          3D

 27 29  0  0  0  0  0  0  0  0999 V2000
    5.1925   -0.4139    6.8852 C   0  0  0  0  0  0  0  0  0  0  0  0
    4.2658   -1.5121    7.3845 C   0  0  0  0  0  0  0  0  0  0  0  0
    3.3003   -1.8249    6.2643 C   0  0  0  0  0  0  0  0  0  0  0  0
    2.3087   -2.8108    6.7830 C   0  0  0  0  0  0  0  0  0  0  0  0
    1.4379   -2.1195    7.8076 C   0  0  0  0  0  0  0  0  0  0  0  0
    2.3333   -1.7413    8.8895 N   0  0  0  0  0  0  0  0  0  0  0  0
    3.6052   -1.1135    8.6711 C   0  0  0  0  0  0  0  0  0  0  0  0
    1.9344   -2.0196   10.2058 C   0  0  0  0  0  0  0  0  0  0  0  0
    2.6976   -1.7346   11.1536 O   0  0  0  0  0  0  0  0  0  0  0  0
    0.6506   -2.6363   10.5349 C   0  0  0  0  0  0  0  0  0  0  0  0
    0.4792   -4.0200   10.3925 C   0  0  0  0  0  0  0  0  0  0  0  0
   -0.7065   -4.6376   10.7120 C   0  0  0  0  0  0  0  0  0  0  0  0
   -1.7618   -3.9068   11.1827 C   0  0  0  0  0  0  0  0  0  0  0  0
   -1.6338   -2.5365   11.3381 C   0  0  0  0  0  0  0  0  0  0  0  0
   -0.4316   -1.9396   11.0100 C   0  0  0  0  0  0  0  0  0  0  0  0
   -0.8677   -5.9898   10.5711 F   0  0  0  0  0  0  0  0  0  0  0  0
    1.5565   -4.7528    9.9108 O   0  0  0  0  0  0  0  0  0  0  0  0
    1.2845   -5.8586    9.0451 C   0  0  0  0  0  0  0  0  0  0  0  0
    0.7531   -0.9054    7.3166 C   0  0  0  0  0  0  0  0  0  0  0  0
   -0.6039   -0.7052    7.6626 N   0  0  0  0  0  0  0  0  0  0  0  0
   -1.1883    0.2519    8.4965 C   0  0  0  0  0  0  0  0  0  0  0  0
   -0.4302    1.2035    9.0616 N   0  0  0  0  0  0  0  0  0  0  0  0
   -0.9530    2.1279    9.8850 C   0  0  0  0  0  0  0  0  0  0  0  0
   -2.2932    2.1499   10.1938 C   0  0  0  0  0  0  0  0  0  0  0  0
   -3.1039    1.1898    9.6334 C   0  0  0  0  0  0  0  0  0  0  0  0
   -2.5321    0.2591    8.7945 C   0  0  0  0  0  0  0  0  0  0  0  0
   -3.0278    3.4653   11.3637 Br  0  0  0  0  0  0  0  0  0  0  0  0
  1  2  1  0
  2  3  1  0
  3  4  1  0
  4  5  1  0
  5  6  1  0
  6  7  1  0
  6  8  1  0
  8  9  2  0
  8 10  1  0
 10 11  2  0
 11 12  1  0
 12 13  2  0
 13 14  1  0
 14 15  2  0
 12 16  1  0
 11 17  1  0
 17 18  1  0
  5 19  1  0
 19 20  1  0
 20 21  1  0
 21 22  2  0
 22 23  1  0
 23 24  2  0
 24 25  1  0
 25 26  2  0
 24 27  1  0
  7  2  1  0
 15 10  1  0
 26 21  1  0
M  END
$$$$
