
     RDKit          3D

 27 29  0  0  0  0  0  0  0  0999 V2000
    0.4582   -1.6650    4.6292 C   0  0  0  0  0  0  0  0  0  0  0  0
    1.4895   -1.8132    5.7374 C   0  0  0  0  0  0  0  0  0  0  0  0
    1.6558   -3.2929    5.9974 C   0  0  0  0  0  0  0  0  0  0  0  0
    2.5706   -3.4478    7.1651 C   0  0  0  0  0  0  0  0  0  0  0  0
    1.8535   -2.9574    8.4027 C   0  0  0  0  0  0  0  0  0  0  0  0
    1.6138   -1.5405    8.1792 N   0  0  0  0  0  0  0  0  0  0  0  0
    1.0960   -1.0178    6.9470 C   0  0  0  0  0  0  0  0  0  0  0  0
    1.9191   -0.6465    9.2170 C   0  0  0  0  0  0  0  0  0  0  0  0
    1.3461    0.4632    9.2620 O   0  0  0  0  0  0  0  0  0  0  0  0
    2.8891   -0.9484   10.2680 C   0  0  0  0  0  0  0  0  0  0  0  0
    4.2593   -0.9687    9.9742 C   0  0  0  0  0  0  0  0  0  0  0  0
    5.2015   -1.2278   10.9410 C   0  0  0  0  0  0  0  0  0  0  0  0
    4.8193   -1.4757   12.2300 C   0  0  0  0  0  0  0  0  0  0  0  0
    3.4748   -1.4652   12.5623 C   0  0  0  0  0  0  0  0  0  0  0  0
    2.5474   -1.2019   11.5723 C   0  0  0  0  0  0  0  0  0  0  0  0
    6.5387   -1.2458   10.6478 F   0  0  0  0  0  0  0  0  0  0  0  0
    4.6368   -0.7183    8.6611 O   0  0  0  0  0  0  0  0  0  0  0  0
    5.8101   -1.3676    8.1631 C   0  0  0  0  0  0  0  0  0  0  0  0
    0.5585   -3.6184    8.6678 C   0  0  0  0  0  0  0  0  0  0  0  0
   -0.5793   -2.8113    8.9029 N   0  0  0  0  0  0  0  0  0  0  0  0
   -1.4326   -2.7587   10.0084 C   0  0  0  0  0  0  0  0  0  0  0  0
   -1.3034   -3.6530   10.9999 N   0  0  0  0  0  0  0  0  0  0  0  0
   -2.1183   -3.6467   12.0685 C   0  0  0  0  0  0  0  0  0  0  0  0
   -3.1289   -2.7238   12.2051 C   0  0  0  0  0  0  0  0  0  0  0  0
   -3.2933   -1.7895   11.2084 C   0  0  0  0  0  0  0  0  0  0  0  0
   -2.4389   -1.8274   10.1287 C   0  0  0  0  0  0  0  0  0  0  0  0
   -4.2816   -2.7212   13.7248 Br  0  0  0  0  0  0  0  0  0  0  0  0
  1  2  1  0
  2  3  1  0
  3  4  1  0
  4  5  1  0
  5  6  1  0
  6  7  1  0
  6  8  1  0
  8  9  2  0
  8 10  1  0
 10 11  2  0
 11 12  1  0
 12 13  2  0
 13 14  1  0
 14 15  2  0
 12 16  1  0
 11 17  1  0
 17 18  1  0
  5 19  1  0
 19 20  1  0
 20 21  1  0
 21 22  2  0
 22 23  1  0
 23 24  2  0
 24 25  1  0
 25 26  2  0
 24 27  1  0
  7  2  1  0
 15 10  1  0
 26 21  1  0
M  END
$$$$
