
     RDKit          3D

 27 29  0  0  0  0  0  0  0  0999 V2000
   -4.7859   -2.4382    9.1622 C   0  0  0  0  0  0  0  0  0  0  0  0
   -3.8185   -1.4941    9.8598 C   0  0  0  0  0  0  0  0  0  0  0  0
   -3.3451   -0.4970    8.8272 C   0  0  0  0  0  0  0  0  0  0  0  0
   -2.3027    0.3569    9.4664 C   0  0  0  0  0  0  0  0  0  0  0  0
   -1.0763   -0.4916    9.7160 C   0  0  0  0  0  0  0  0  0  0  0  0
   -1.4939   -1.5116   10.6649 N   0  0  0  0  0  0  0  0  0  0  0  0
   -2.7132   -2.2562   10.5294 C   0  0  0  0  0  0  0  0  0  0  0  0
   -0.6674   -1.7641   11.7705 C   0  0  0  0  0  0  0  0  0  0  0  0
    0.4513   -1.2113   11.8418 O   0  0  0  0  0  0  0  0  0  0  0  0
   -1.0508   -2.6552   12.8639 C   0  0  0  0  0  0  0  0  0  0  0  0
   -1.9727   -2.2266   13.8286 C   0  0  0  0  0  0  0  0  0  0  0  0
   -2.3728   -3.0441   14.8588 C   0  0  0  0  0  0  0  0  0  0  0  0
   -1.8739   -4.3123   14.9687 C   0  0  0  0  0  0  0  0  0  0  0  0
   -0.9604   -4.7746   14.0359 C   0  0  0  0  0  0  0  0  0  0  0  0
   -0.5744   -3.9334   13.0098 C   0  0  0  0  0  0  0  0  0  0  0  0
   -3.2740   -2.6198   15.7980 F   0  0  0  0  0  0  0  0  0  0  0  0
   -2.4713   -0.9356   13.7094 O   0  0  0  0  0  0  0  0  0  0  0  0
   -3.4647   -0.5091   14.6462 C   0  0  0  0  0  0  0  0  0  0  0  0
   -0.5336   -1.1595    8.5146 C   0  0  0  0  0  0  0  0  0  0  0  0
    0.6747   -1.8861    8.6300 N   0  0  0  0  0  0  0  0  0  0  0  0
    1.8926   -1.7187    7.9655 C   0  0  0  0  0  0  0  0  0  0  0  0
    2.0157   -0.7804    7.0146 N   0  0  0  0  0  0  0  0  0  0  0  0
    3.1645   -0.6038    6.3400 C   0  0  0  0  0  0  0  0  0  0  0  0
    4.2769   -1.3743    6.5867 C   0  0  0  0  0  0  0  0  0  0  0  0
    4.1900   -2.3476    7.5554 C   0  0  0  0  0  0  0  0  0  0  0  0
    2.9963   -2.4989    8.2256 C   0  0  0  0  0  0  0  0  0  0  0  0
    5.9039   -1.1176    5.6248 Br  0  0  0  0  0  0  0  0  0  0  0  0
  1  2  1  0
  2  3  1  0
  3  4  1  0
  4  5  1  0
  5  6  1  0
  6  7  1  0
  6  8  1  0
  8  9  2  0
  8 10  1  0
 10 11  2  0
 11 12  1  0
 12 13  2  0
 13 14  1  0
 14 15  2  0
 12 16  1  0
 11 17  1  0
 17 18  1  0
  5 19  1  0
 19 20  1  0
 20 21  1  0
 21 22  2  0
 22 23  1  0
 23 24  2  0
 24 25  1  0
 25 26  2  0
 24 27  1  0
  7  2  1  0
 15 10  1  0
 26 21  1  0
M  END
$$$$
