
     RDKit          3D

 27 29  0  0  0  0  0  0  0  0999 V2000
   -1.5115   -4.2215   11.2892 C   0  0  0  0  0  0  0  0  0  0  0  0
   -0.0631   -4.0783   10.8467 C   0  0  0  0  0  0  0  0  0  0  0  0
    0.6569   -3.2971   11.9218 C   0  0  0  0  0  0  0  0  0  0  0  0
    2.0464   -3.0425   11.4432 C   0  0  0  0  0  0  0  0  0  0  0  0
    1.9837   -2.0669   10.2897 C   0  0  0  0  0  0  0  0  0  0  0  0
    1.2438   -2.7502    9.2404 N   0  0  0  0  0  0  0  0  0  0  0  0
    0.0226   -3.4649    9.4803 C   0  0  0  0  0  0  0  0  0  0  0  0
    1.7622   -2.7168    7.9368 C   0  0  0  0  0  0  0  0  0  0  0  0
    0.9971   -2.8982    6.9653 O   0  0  0  0  0  0  0  0  0  0  0  0
    3.1749   -2.4771    7.6478 C   0  0  0  0  0  0  0  0  0  0  0  0
    3.5986   -1.2128    7.2164 C   0  0  0  0  0  0  0  0  0  0  0  0
    4.9213   -0.9445    6.9554 C   0  0  0  0  0  0  0  0  0  0  0  0
    5.8683   -1.9181    7.1125 C   0  0  0  0  0  0  0  0  0  0  0  0
    5.4912   -3.1813    7.5371 C   0  0  0  0  0  0  0  0  0  0  0  0
    4.1554   -3.4255    7.7928 C   0  0  0  0  0  0  0  0  0  0  0  0
    5.3292    0.2928    6.5346 F   0  0  0  0  0  0  0  0  0  0  0  0
    2.6283   -0.2316    7.0573 O   0  0  0  0  0  0  0  0  0  0  0  0
    3.0376    1.1372    7.1302 C   0  0  0  0  0  0  0  0  0  0  0  0
    1.2996   -0.7932   10.5957 C   0  0  0  0  0  0  0  0  0  0  0  0
    0.5719   -0.1499    9.5672 N   0  0  0  0  0  0  0  0  0  0  0  0
   -0.5737    0.6473    9.6383 C   0  0  0  0  0  0  0  0  0  0  0  0
   -0.7851    1.6030    8.7210 N   0  0  0  0  0  0  0  0  0  0  0  0
   -1.8643    2.4024    8.7685 C   0  0  0  0  0  0  0  0  0  0  0  0
   -2.8113    2.2852    9.7591 C   0  0  0  0  0  0  0  0  0  0  0  0
   -2.6297    1.3159   10.7187 C   0  0  0  0  0  0  0  0  0  0  0  0
   -1.5117    0.5157   10.6370 C   0  0  0  0  0  0  0  0  0  0  0  0
   -4.3404    3.4237    9.8199 Br  0  0  0  0  0  0  0  0  0  0  0  0
  1  2  1  0
  2  3  1  0
  3  4  1  0
  4  5  1  0
  5  6  1  0
  6  7  1  0
  6  8  1  0
  8  9  2  0
  8 10  1  0
 10 11  2  0
 11 12  1  0
 12 13  2  0
 13 14  1  0
 14 15  2  0
 12 16  1  0
 11 17  1  0
 17 18  1  0
  5 19  1  0
 19 20  1  0
 20 21  1  0
 21 22  2  0
 22 23  1  0
 23 24  2  0
 24 25  1  0
 25 26  2  0
 24 27  1  0
  7  2  1  0
 15 10  1  0
 26 21  1  0
M  END
$$$$
