
     RDKit          3D

 27 29  0  0  0  0  0  0  0  0999 V2000
    5.5209   -5.3272    9.0223 C   0  0  0  0  0  0  0  0  0  0  0  0
    4.9386   -3.9268    8.9054 C   0  0  0  0  0  0  0  0  0  0  0  0
    4.9477   -3.3226   10.2909 C   0  0  0  0  0  0  0  0  0  0  0  0
    4.2659   -1.9984   10.2122 C   0  0  0  0  0  0  0  0  0  0  0  0
    2.7959   -2.2324    9.9464 C   0  0  0  0  0  0  0  0  0  0  0  0
    2.7321   -2.8713    8.6414 N   0  0  0  0  0  0  0  0  0  0  0  0
    3.5851   -3.9604    8.2591 C   0  0  0  0  0  0  0  0  0  0  0  0
    1.7998   -2.3851    7.7120 C   0  0  0  0  0  0  0  0  0  0  0  0
    0.9551   -3.1650    7.2219 O   0  0  0  0  0  0  0  0  0  0  0  0
    1.7620   -0.9898    7.2780 C   0  0  0  0  0  0  0  0  0  0  0  0
    0.6333   -0.2023    7.5427 C   0  0  0  0  0  0  0  0  0  0  0  0
    0.5705    1.1189    7.1684 C   0  0  0  0  0  0  0  0  0  0  0  0
    1.6220    1.7044    6.5198 C   0  0  0  0  0  0  0  0  0  0  0  0
    2.7563    0.9610    6.2390 C   0  0  0  0  0  0  0  0  0  0  0  0
    2.7947   -0.3650    6.6258 C   0  0  0  0  0  0  0  0  0  0  0  0
   -0.5348    1.8831    7.4302 F   0  0  0  0  0  0  0  0  0  0  0  0
   -0.4305   -0.8076    8.1996 O   0  0  0  0  0  0  0  0  0  0  0  0
   -1.7572   -0.4253    7.8255 C   0  0  0  0  0  0  0  0  0  0  0  0
    2.1222   -3.1043   10.9313 C   0  0  0  0  0  0  0  0  0  0  0  0
    0.8051   -3.5432   10.6596 N   0  0  0  0  0  0  0  0  0  0  0  0
   -0.4229   -2.9727   11.0049 C   0  0  0  0  0  0  0  0  0  0  0  0
   -0.4649   -1.9202   11.8356 N   0  0  0  0  0  0  0  0  0  0  0  0
   -1.6278   -1.3579   12.2065 C   0  0  0  0  0  0  0  0  0  0  0  0
   -2.8385   -1.8297   11.7553 C   0  0  0  0  0  0  0  0  0  0  0  0
   -2.8368   -2.9084   10.9011 C   0  0  0  0  0  0  0  0  0  0  0  0
   -1.6256   -3.4578   10.5434 C   0  0  0  0  0  0  0  0  0  0  0  0
   -4.4850   -1.0264   12.2864 Br  0  0  0  0  0  0  0  0  0  0  0  0
  1  2  1  0
  2  3  1  0
  3  4  1  0
  4  5  1  0
  5  6  1  0
  6  7  1  0
  6  8  1  0
  8  9  2  0
  8 10  1  0
 10 11  2  0
 11 12  1  0
 12 13  2  0
 13 14  1  0
 14 15  2  0
 12 16  1  0
 11 17  1  0
 17 18  1  0
  5 19  1  0
 19 20  1  0
 20 21  1  0
 21 22  2  0
 22 23  1  0
 23 24  2  0
 24 25  1  0
 25 26  2  0
 24 27  1  0
  7  2  1  0
 15 10  1  0
 26 21  1  0
M  END
$$$$
