
     RDKit          3D

 27 29  0  0  0  0  0  0  0  0999 V2000
    1.4327   -5.5599    8.0826 C   0  0  0  0  0  0  0  0  0  0  0  0
    2.3046   -4.5148    8.7620 C   0  0  0  0  0  0  0  0  0  0  0  0
    2.6580   -5.0498   10.1308 C   0  0  0  0  0  0  0  0  0  0  0  0
    3.4084   -3.9831   10.8543 C   0  0  0  0  0  0  0  0  0  0  0  0
    2.4541   -2.8510   11.1610 C   0  0  0  0  0  0  0  0  0  0  0  0
    2.0333   -2.3342    9.8682 N   0  0  0  0  0  0  0  0  0  0  0  0
    1.6235   -3.1782    8.7822 C   0  0  0  0  0  0  0  0  0  0  0  0
    2.0449   -0.9441    9.6764 C   0  0  0  0  0  0  0  0  0  0  0  0
    2.6201   -0.2124   10.5105 O   0  0  0  0  0  0  0  0  0  0  0  0
    1.4090   -0.2931    8.5325 C   0  0  0  0  0  0  0  0  0  0  0  0
    2.1309   -0.0921    7.3482 C   0  0  0  0  0  0  0  0  0  0  0  0
    1.5599    0.4974    6.2455 C   0  0  0  0  0  0  0  0  0  0  0  0
    0.2561    0.9075    6.2781 C   0  0  0  0  0  0  0  0  0  0  0  0
   -0.4924    0.7273    7.4294 C   0  0  0  0  0  0  0  0  0  0  0  0
    0.1047    0.1322    8.5242 C   0  0  0  0  0  0  0  0  0  0  0  0
    2.2702    0.6907    5.0912 F   0  0  0  0  0  0  0  0  0  0  0  0
    3.4555   -0.5098    7.3266 O   0  0  0  0  0  0  0  0  0  0  0  0
    4.3325    0.0843    6.3652 C   0  0  0  0  0  0  0  0  0  0  0  0
    1.2521   -3.2473   11.9239 C   0  0  0  0  0  0  0  0  0  0  0  0
    0.3039   -2.2528   12.2604 N   0  0  0  0  0  0  0  0  0  0  0  0
   -1.0899   -2.3253   12.3312 C   0  0  0  0  0  0  0  0  0  0  0  0
   -1.6881   -3.4900   12.6230 N   0  0  0  0  0  0  0  0  0  0  0  0
   -3.0260   -3.6032   12.6797 C   0  0  0  0  0  0  0  0  0  0  0  0
   -3.8556   -2.5321   12.4423 C   0  0  0  0  0  0  0  0  0  0  0  0
   -3.2794   -1.3198   12.1398 C   0  0  0  0  0  0  0  0  0  0  0  0
   -1.9051   -1.2426   12.0909 C   0  0  0  0  0  0  0  0  0  0  0  0
   -5.7538   -2.7006   12.5246 Br  0  0  0  0  0  0  0  0  0  0  0  0
  1  2  1  0
  2  3  1  0
  3  4  1  0
  4  5  1  0
  5  6  1  0
  6  7  1  0
  6  8  1  0
  8  9  2  0
  8 10  1  0
 10 11  2  0
 11 12  1  0
 12 13  2  0
 13 14  1  0
 14 15  2  0
 12 16  1  0
 11 17  1  0
 17 18  1  0
  5 19  1  0
 19 20  1  0
 20 21  1  0
 21 22  2  0
 22 23  1  0
 23 24  2  0
 24 25  1  0
 25 26  2  0
 24 27  1  0
  7  2  1  0
 15 10  1  0
 26 21  1  0
M  END
$$$$
