
     RDKit          3D

 27 29  0  0  0  0  0  0  0  0999 V2000
    4.7714   -5.1593   11.7735 C   0  0  0  0  0  0  0  0  0  0  0  0
    4.5776   -4.0418   10.7598 C   0  0  0  0  0  0  0  0  0  0  0  0
    4.4263   -2.7548   11.5378 C   0  0  0  0  0  0  0  0  0  0  0  0
    4.1118   -1.6705   10.5632 C   0  0  0  0  0  0  0  0  0  0  0  0
    2.7232   -1.9086   10.0144 C   0  0  0  0  0  0  0  0  0  0  0  0
    2.7970   -3.1738    9.3010 N   0  0  0  0  0  0  0  0  0  0  0  0
    3.4300   -4.3429    9.8416 C   0  0  0  0  0  0  0  0  0  0  0  0
    2.2331   -3.2432    8.0178 C   0  0  0  0  0  0  0  0  0  0  0  0
    1.8318   -4.3431    7.5805 O   0  0  0  0  0  0  0  0  0  0  0  0
    2.0866   -2.0771    7.1486 C   0  0  0  0  0  0  0  0  0  0  0  0
    3.2183   -1.4842    6.5726 C   0  0  0  0  0  0  0  0  0  0  0  0
    3.1177   -0.3998    5.7337 C   0  0  0  0  0  0  0  0  0  0  0  0
    1.8943    0.1337    5.4373 C   0  0  0  0  0  0  0  0  0  0  0  0
    0.7507   -0.4227    5.9860 C   0  0  0  0  0  0  0  0  0  0  0  0
    0.8788   -1.5123    6.8261 C   0  0  0  0  0  0  0  0  0  0  0  0
    4.2269    0.1749    5.1737 F   0  0  0  0  0  0  0  0  0  0  0  0
    4.4566   -2.0321    6.8824 O   0  0  0  0  0  0  0  0  0  0  0  0
    5.2025   -2.6476    5.8284 C   0  0  0  0  0  0  0  0  0  0  0  0
    1.6634   -2.0069   11.0397 C   0  0  0  0  0  0  0  0  0  0  0  0
    0.3190   -2.1274   10.6162 N   0  0  0  0  0  0  0  0  0  0  0  0
   -0.5118   -1.1992    9.9828 C   0  0  0  0  0  0  0  0  0  0  0  0
   -0.2157    0.1084   10.0282 N   0  0  0  0  0  0  0  0  0  0  0  0
   -1.0014    1.0320    9.4489 C   0  0  0  0  0  0  0  0  0  0  0  0
   -2.1516    0.6883    8.7776 C   0  0  0  0  0  0  0  0  0  0  0  0
   -2.4893   -0.6438    8.7089 C   0  0  0  0  0  0  0  0  0  0  0  0
   -1.6595   -1.5611    9.3146 C   0  0  0  0  0  0  0  0  0  0  0  0
   -3.2618    2.0051    7.9578 Br  0  0  0  0  0  0  0  0  0  0  0  0
  1  2  1  0
  2  3  1  0
  3  4  1  0
  4  5  1  0
  5  6  1  0
  6  7  1  0
  6  8  1  0
  8  9  2  0
  8 10  1  0
 10 11  2  0
 11 12  1  0
 12 13  2  0
 13 14  1  0
 14 15  2  0
 12 16  1  0
 11 17  1  0
 17 18  1  0
  5 19  1  0
 19 20  1  0
 20 21  1  0
 21 22  2  0
 22 23  1  0
 23 24  2  0
 24 25  1  0
 25 26  2  0
 24 27  1  0
  7  2  1  0
 15 10  1  0
 26 21  1  0
M  END
$$$$
