
     RDKit          3D

 43 47  0  0  0  0  0  0  0  0999 V2000
   -3.2276   -1.0224   11.4187 C   0  0  0  0  0  0  0  0  0  0  0  0
   -2.3596   -0.0683   12.1911 C   0  0  0  0  0  0  0  0  0  0  0  0
   -2.7981    1.2037   12.4852 C   0  0  0  0  0  0  0  0  0  0  0  0
   -2.0177    2.1044   13.1940 C   0  0  0  0  0  0  0  0  0  0  0  0
   -0.7706    1.6711   13.5977 C   0  0  0  0  0  0  0  0  0  0  0  0
   -0.2682    0.4176   13.3398 C   0  0  0  0  0  0  0  0  0  0  0  0
   -1.1058   -0.4443   12.6198 C   0  0  0  0  0  0  0  0  0  0  0  0
    1.0585   -0.0366   13.7655 C   0  0  0  0  0  0  0  0  0  0  0  0
    1.1228   -0.5171   14.9158 O   0  0  0  0  0  0  0  0  0  0  0  0
    2.1810    0.0572   12.9431 N   0  0  0  0  0  0  0  0  0  0  0  0
    3.5148   -0.3607   13.3463 C   0  0  0  0  0  0  0  0  0  0  0  0
    2.0749    0.6218   11.5859 C   0  0  0  0  0  0  0  0  0  0  0  0
    3.2324    1.5011   11.2735 C   0  0  0  0  0  0  0  0  0  0  0  0
    3.1614    2.7961   11.9835 C   0  0  0  0  0  0  0  0  0  0  0  0
    2.3511    3.8300   11.5370 C   0  0  0  0  0  0  0  0  0  0  0  0
    2.2430    5.0395   12.1910 C   0  0  0  0  0  0  0  0  0  0  0  0
    2.9579    5.2626   13.3411 C   0  0  0  0  0  0  0  0  0  0  0  0
    3.7688    4.2677   13.8151 C   0  0  0  0  0  0  0  0  0  0  0  0
    3.8751    3.0557   13.1572 C   0  0  0  0  0  0  0  0  0  0  0  0
    2.8422    6.5411   14.0345 C   0  0  0  0  0  0  0  0  0  0  0  0
    2.1191    7.5936   13.5668 C   0  0  0  0  0  0  0  0  0  0  0  0
    2.0287    8.8025   14.2487 C   0  0  0  0  0  0  0  0  0  0  0  0
    2.6999    8.9500   15.4556 C   0  0  0  0  0  0  0  0  0  0  0  0
    3.4289    7.9097   15.9416 C   0  0  0  0  0  0  0  0  0  0  0  0
    3.5038    6.7114   15.2416 C   0  0  0  0  0  0  0  0  0  0  0  0
    1.8572   -0.5233   10.6775 C   0  0  0  0  0  0  0  0  0  0  0  0
    1.4166   -1.6413   11.1456 O   0  0  0  0  0  0  0  0  0  0  0  0
    2.0849   -0.5268    9.2815 N   0  0  0  0  0  0  0  0  0  0  0  0
    1.9578   -1.7613    8.5123 C   0  0  0  0  0  0  0  0  0  0  0  0
    1.8562   -1.5054    7.0538 C   0  0  0  0  0  0  0  0  0  0  0  0
    1.9394   -0.0579    6.7770 C   0  0  0  0  0  0  0  0  0  0  0  0
    1.1204    0.9793    7.2152 C   0  0  0  0  0  0  0  0  0  0  0  0
    1.5759    2.1433    6.7233 N   0  0  0  0  0  0  0  0  0  0  0  0
    2.6686    1.9168    5.9742 C   0  0  0  0  0  0  0  0  0  0  0  0
    3.4769    2.7712    5.2773 C   0  0  0  0  0  0  0  0  0  0  0  0
    4.5584    2.2802    4.5765 C   0  0  0  0  0  0  0  0  0  0  0  0
    4.7879    0.9266    4.6053 C   0  0  0  0  0  0  0  0  0  0  0  0
    3.9778    0.0636    5.3047 C   0  0  0  0  0  0  0  0  0  0  0  0
    2.9038    0.5362    6.0025 C   0  0  0  0  0  0  0  0  0  0  0  0
    0.8059   -2.5887    8.9550 C   0  0  0  0  0  0  0  0  0  0  0  0
   -0.2716   -2.0915    9.3593 O   0  0  0  0  0  0  0  0  0  0  0  0
    0.8839   -3.9684    8.9354 O   0  0  0  0  0  0  0  0  0  0  0  0
   -2.5227    3.4804   13.4966 C   0  0  0  0  0  0  0  0  0  0  0  0
  1  2  1  0
  2  3  2  0
  3  4  1  0
  4  5  2  0
  5  6  1  0
  6  7  2  0
  6  8  1  0
  8  9  2  0
  8 10  1  0
 10 11  1  0
 10 12  1  0
 12 13  1  0
 13 14  1  0
 14 15  2  0
 15 16  1  0
 16 17  2  0
 17 18  1  0
 18 19  2  0
 17 20  1  0
 20 21  2  0
 21 22  1  0
 22 23  2  0
 23 24  1  0
 24 25  2  0
 12 26  1  0
 26 27  2  0
 26 28  1  0
 28 29  1  0
 29 30  1  0
 30 31  1  0
 31 32  2  0
 32 33  1  0
 33 34  1  0
 34 35  2  0
 35 36  1  0
 36 37  2  0
 37 38  1  0
 38 39  2  0
 29 40  1  0
 40 41  2  0
 40 42  1  0
  4 43  1  0
  7  2  1  0
 19 14  1  0
 25 20  1  0
 39 31  1  0
 39 34  1  0
M  END
$$$$
