
     RDKit          3D

 43 47  0  0  0  0  0  0  0  0999 V2000
   -3.4853   -1.1080   13.9917 C   0  0  0  0  0  0  0  0  0  0  0  0
   -2.2876   -0.2743   13.6305 C   0  0  0  0  0  0  0  0  0  0  0  0
   -2.3330    1.0996   13.7157 C   0  0  0  0  0  0  0  0  0  0  0  0
   -1.2441    1.8926   13.3870 C   0  0  0  0  0  0  0  0  0  0  0  0
   -0.1004    1.2437   12.9666 C   0  0  0  0  0  0  0  0  0  0  0  0
    0.0165   -0.1218   12.8572 C   0  0  0  0  0  0  0  0  0  0  0  0
   -1.1190   -0.8656   13.2042 C   0  0  0  0  0  0  0  0  0  0  0  0
    1.2308   -0.8064   12.4054 C   0  0  0  0  0  0  0  0  0  0  0  0
    1.0736   -1.6391   11.4888 O   0  0  0  0  0  0  0  0  0  0  0  0
    2.4850   -0.5479   12.9580 N   0  0  0  0  0  0  0  0  0  0  0  0
    3.4058   -1.5870   13.3924 C   0  0  0  0  0  0  0  0  0  0  0  0
    2.9497    0.8366   13.1561 C   0  0  0  0  0  0  0  0  0  0  0  0
    3.5808    1.0099   14.4911 C   0  0  0  0  0  0  0  0  0  0  0  0
    2.6933    0.5782   15.5920 C   0  0  0  0  0  0  0  0  0  0  0  0
    3.1111    0.5926   16.9149 C   0  0  0  0  0  0  0  0  0  0  0  0
    2.2992    0.2213   17.9662 C   0  0  0  0  0  0  0  0  0  0  0  0
    1.0110   -0.1868   17.7258 C   0  0  0  0  0  0  0  0  0  0  0  0
    0.5601   -0.2149   16.4344 C   0  0  0  0  0  0  0  0  0  0  0  0
    1.3765    0.1582   15.3821 C   0  0  0  0  0  0  0  0  0  0  0  0
    0.1510   -0.5776   18.8377 C   0  0  0  0  0  0  0  0  0  0  0  0
   -1.0587   -1.1799   18.6842 C   0  0  0  0  0  0  0  0  0  0  0  0
   -1.8589   -1.5393   19.7635 C   0  0  0  0  0  0  0  0  0  0  0  0
   -1.4137   -1.2770   21.0525 C   0  0  0  0  0  0  0  0  0  0  0  0
   -0.2067   -0.6753   21.2287 C   0  0  0  0  0  0  0  0  0  0  0  0
    0.5750   -0.3256   20.1340 C   0  0  0  0  0  0  0  0  0  0  0  0
    3.7912    1.1618   11.9857 C   0  0  0  0  0  0  0  0  0  0  0  0
    5.0757    1.1722   12.0997 O   0  0  0  0  0  0  0  0  0  0  0  0
    3.3200    1.4731   10.6889 N   0  0  0  0  0  0  0  0  0  0  0  0
    3.8966    2.5839    9.9369 C   0  0  0  0  0  0  0  0  0  0  0  0
    3.5440    2.5289    8.4963 C   0  0  0  0  0  0  0  0  0  0  0  0
    2.2876    1.7793    8.3010 C   0  0  0  0  0  0  0  0  0  0  0  0
    1.0959    1.8396    9.0185 C   0  0  0  0  0  0  0  0  0  0  0  0
    0.2102    0.9840    8.4819 N   0  0  0  0  0  0  0  0  0  0  0  0
    0.7706    0.3575    7.4332 C   0  0  0  0  0  0  0  0  0  0  0  0
    0.2752   -0.5858    6.5765 C   0  0  0  0  0  0  0  0  0  0  0  0
    1.0662   -1.0775    5.5595 C   0  0  0  0  0  0  0  0  0  0  0  0
    2.3457   -0.5924    5.4425 C   0  0  0  0  0  0  0  0  0  0  0  0
    2.8481    0.3561    6.3015 C   0  0  0  0  0  0  0  0  0  0  0  0
    2.0759    0.8512    7.3126 C   0  0  0  0  0  0  0  0  0  0  0  0
    5.3727    2.6638   10.0865 C   0  0  0  0  0  0  0  0  0  0  0  0
    6.1553    1.8501    9.5413 O   0  0  0  0  0  0  0  0  0  0  0  0
    5.9481    3.6621   10.8496 O   0  0  0  0  0  0  0  0  0  0  0  0
   -1.3259    3.3835   13.4891 C   0  0  0  0  0  0  0  0  0  0  0  0
  1  2  1  0
  2  3  2  0
  3  4  1  0
  4  5  2  0
  5  6  1  0
  6  7  2  0
  6  8  1  0
  8  9  2  0
  8 10  1  0
 10 11  1  0
 10 12  1  0
 12 13  1  0
 13 14  1  0
 14 15  2  0
 15 16  1  0
 16 17  2  0
 17 18  1  0
 18 19  2  0
 17 20  1  0
 20 21  2  0
 21 22  1  0
 22 23  2  0
 23 24  1  0
 24 25  2  0
 12 26  1  0
 26 27  2  0
 26 28  1  0
 28 29  1  0
 29 30  1  0
 30 31  1  0
 31 32  2  0
 32 33  1  0
 33 34  1  0
 34 35  2  0
 35 36  1  0
 36 37  2  0
 37 38  1  0
 38 39  2  0
 29 40  1  0
 40 41  2  0
 40 42  1  0
  4 43  1  0
  7  2  1  0
 19 14  1  0
 25 20  1  0
 39 31  1  0
 39 34  1  0
M  END
$$$$
