
     RDKit          3D

 43 47  0  0  0  0  0  0  0  0999 V2000
   -1.6053   -0.7434   14.9743 C   0  0  0  0  0  0  0  0  0  0  0  0
   -1.5441   -0.1043   13.6148 C   0  0  0  0  0  0  0  0  0  0  0  0
   -2.5661   -0.2770   12.7079 C   0  0  0  0  0  0  0  0  0  0  0  0
   -2.5347    0.2990   11.4470 C   0  0  0  0  0  0  0  0  0  0  0  0
   -1.4268    1.0606   11.1333 C   0  0  0  0  0  0  0  0  0  0  0  0
   -0.3708    1.2755   11.9872 C   0  0  0  0  0  0  0  0  0  0  0  0
   -0.4639    0.6661   13.2453 C   0  0  0  0  0  0  0  0  0  0  0  0
    0.8060    2.0803   11.6483 C   0  0  0  0  0  0  0  0  0  0  0  0
    0.7331    3.2931   11.9347 O   0  0  0  0  0  0  0  0  0  0  0  0
    1.9386    1.5329   11.0460 N   0  0  0  0  0  0  0  0  0  0  0  0
    2.9205    2.3153   10.3112 C   0  0  0  0  0  0  0  0  0  0  0  0
    2.1976    0.0834   11.1071 C   0  0  0  0  0  0  0  0  0  0  0  0
    2.8406   -0.4046    9.8585 C   0  0  0  0  0  0  0  0  0  0  0  0
    1.8569   -0.6707    8.7873 C   0  0  0  0  0  0  0  0  0  0  0  0
    0.4961   -0.4836    8.9828 C   0  0  0  0  0  0  0  0  0  0  0  0
   -0.4438   -0.6977    7.9964 C   0  0  0  0  0  0  0  0  0  0  0  0
   -0.0467   -1.1160    6.7511 C   0  0  0  0  0  0  0  0  0  0  0  0
    1.2870   -1.3120    6.5173 C   0  0  0  0  0  0  0  0  0  0  0  0
    2.2274   -1.0964    7.5083 C   0  0  0  0  0  0  0  0  0  0  0  0
   -1.0404   -1.3405    5.7066 C   0  0  0  0  0  0  0  0  0  0  0  0
   -2.3582   -1.0299    5.8356 C   0  0  0  0  0  0  0  0  0  0  0  0
   -3.2841   -1.2577    4.8231 C   0  0  0  0  0  0  0  0  0  0  0  0
   -2.8557   -1.8242    3.6297 C   0  0  0  0  0  0  0  0  0  0  0  0
   -1.5418   -2.1425    3.4797 C   0  0  0  0  0  0  0  0  0  0  0  0
   -0.6355   -1.9051    4.5062 C   0  0  0  0  0  0  0  0  0  0  0  0
    2.9408   -0.1514   12.3626 C   0  0  0  0  0  0  0  0  0  0  0  0
    2.7434   -1.2344   13.0343 O   0  0  0  0  0  0  0  0  0  0  0  0
    3.8960    0.7213   12.9342 N   0  0  0  0  0  0  0  0  0  0  0  0
    4.1569    0.6972   14.3705 C   0  0  0  0  0  0  0  0  0  0  0  0
    4.0741    2.0488   14.9783 C   0  0  0  0  0  0  0  0  0  0  0  0
    4.8199    3.0275   14.1632 C   0  0  0  0  0  0  0  0  0  0  0  0
    6.1871    3.1211   13.9169 C   0  0  0  0  0  0  0  0  0  0  0  0
    6.4222    4.1666   13.1069 N   0  0  0  0  0  0  0  0  0  0  0  0
    5.2601    4.7710   12.8059 C   0  0  0  0  0  0  0  0  0  0  0  0
    4.9858    5.8598   12.0260 C   0  0  0  0  0  0  0  0  0  0  0  0
    3.6838    6.2876   11.8720 C   0  0  0  0  0  0  0  0  0  0  0  0
    2.6929    5.5913   12.5193 C   0  0  0  0  0  0  0  0  0  0  0  0
    2.9640    4.4958   13.3045 C   0  0  0  0  0  0  0  0  0  0  0  0
    4.2483    4.0617   13.4656 C   0  0  0  0  0  0  0  0  0  0  0  0
    5.4694    0.0827   14.6978 C   0  0  0  0  0  0  0  0  0  0  0  0
    6.3587   -0.1177   13.8370 O   0  0  0  0  0  0  0  0  0  0  0  0
    5.7629   -0.2980   15.9935 O   0  0  0  0  0  0  0  0  0  0  0  0
   -3.6609    0.0912   10.4835 C   0  0  0  0  0  0  0  0  0  0  0  0
  1  2  1  0
  2  3  2  0
  3  4  1  0
  4  5  2  0
  5  6  1  0
  6  7  2  0
  6  8  1  0
  8  9  2  0
  8 10  1  0
 10 11  1  0
 10 12  1  0
 12 13  1  0
 13 14  1  0
 14 15  2  0
 15 16  1  0
 16 17  2  0
 17 18  1  0
 18 19  2  0
 17 20  1  0
 20 21  2  0
 21 22  1  0
 22 23  2  0
 23 24  1  0
 24 25  2  0
 12 26  1  0
 26 27  2  0
 26 28  1  0
 28 29  1  0
 29 30  1  0
 30 31  1  0
 31 32  2  0
 32 33  1  0
 33 34  1  0
 34 35  2  0
 35 36  1  0
 36 37  2  0
 37 38  1  0
 38 39  2  0
 29 40  1  0
 40 41  2  0
 40 42  1  0
  4 43  1  0
  7  2  1  0
 19 14  1  0
 25 20  1  0
 39 31  1  0
 39 34  1  0
M  END
$$$$
