
     RDKit          3D

 43 47  0  0  0  0  0  0  0  0999 V2000
    8.6296   -0.5653   12.9378 C   0  0  0  0  0  0  0  0  0  0  0  0
    7.8561    0.7041   12.7132 C   0  0  0  0  0  0  0  0  0  0  0  0
    8.5008    1.8709   12.3675 C   0  0  0  0  0  0  0  0  0  0  0  0
    7.8126    3.0561   12.1565 C   0  0  0  0  0  0  0  0  0  0  0  0
    6.4409    3.0197   12.3080 C   0  0  0  0  0  0  0  0  0  0  0  0
    5.7318    1.8929   12.6512 C   0  0  0  0  0  0  0  0  0  0  0  0
    6.4858    0.7290   12.8503 C   0  0  0  0  0  0  0  0  0  0  0  0
    4.2760    1.8598   12.8163 C   0  0  0  0  0  0  0  0  0  0  0  0
    3.8674    1.6806   13.9821 O   0  0  0  0  0  0  0  0  0  0  0  0
    3.3978    2.0194   11.7446 N   0  0  0  0  0  0  0  0  0  0  0  0
    3.8280    2.1639   10.3624 C   0  0  0  0  0  0  0  0  0  0  0  0
    1.9417    2.0721   11.9658 C   0  0  0  0  0  0  0  0  0  0  0  0
    1.3763    3.3793   11.5391 C   0  0  0  0  0  0  0  0  0  0  0  0
    1.7796    4.4846   12.4345 C   0  0  0  0  0  0  0  0  0  0  0  0
    1.8815    4.3118   13.8073 C   0  0  0  0  0  0  0  0  0  0  0  0
    2.2801    5.3150   14.6659 C   0  0  0  0  0  0  0  0  0  0  0  0
    2.5982    6.5546   14.1703 C   0  0  0  0  0  0  0  0  0  0  0  0
    2.5110    6.7659   12.8214 C   0  0  0  0  0  0  0  0  0  0  0  0
    2.1112    5.7581   11.9626 C   0  0  0  0  0  0  0  0  0  0  0  0
    3.0219    7.6154   15.0780 C   0  0  0  0  0  0  0  0  0  0  0  0
    3.3575    7.4092   16.3797 C   0  0  0  0  0  0  0  0  0  0  0  0
    3.7559    8.4411   17.2231 C   0  0  0  0  0  0  0  0  0  0  0  0
    3.8164    9.7362   16.7254 C   0  0  0  0  0  0  0  0  0  0  0  0
    3.4850    9.9645   15.4261 C   0  0  0  0  0  0  0  0  0  0  0  0
    3.0900    8.9167   14.6030 C   0  0  0  0  0  0  0  0  0  0  0  0
    1.3806    0.8706   11.3137 C   0  0  0  0  0  0  0  0  0  0  0  0
    1.1100    0.8898   10.0529 O   0  0  0  0  0  0  0  0  0  0  0  0
    1.0987   -0.3608   11.9500 N   0  0  0  0  0  0  0  0  0  0  0  0
    0.1001   -1.2706   11.3960 C   0  0  0  0  0  0  0  0  0  0  0  0
    0.0154   -1.1771    9.9172 C   0  0  0  0  0  0  0  0  0  0  0  0
   -1.0414   -2.0704    9.4035 C   0  0  0  0  0  0  0  0  0  0  0  0
   -1.4789   -3.3002    9.8882 C   0  0  0  0  0  0  0  0  0  0  0  0
   -2.4739   -3.7563    9.1095 N   0  0  0  0  0  0  0  0  0  0  0  0
   -2.7135   -2.8735    8.1248 C   0  0  0  0  0  0  0  0  0  0  0  0
   -3.6186   -2.8893    7.1004 C   0  0  0  0  0  0  0  0  0  0  0  0
   -3.6668   -1.8405    6.2062 C   0  0  0  0  0  0  0  0  0  0  0  0
   -2.7881   -0.7998    6.3813 C   0  0  0  0  0  0  0  0  0  0  0  0
   -1.8763   -0.7795    7.4100 C   0  0  0  0  0  0  0  0  0  0  0  0
   -1.8177   -1.8113    8.3021 C   0  0  0  0  0  0  0  0  0  0  0  0
   -1.2469   -1.0614   11.9871 C   0  0  0  0  0  0  0  0  0  0  0  0
   -2.1945   -0.5431   11.3506 O   0  0  0  0  0  0  0  0  0  0  0  0
   -1.5085   -1.4406   13.2901 O   0  0  0  0  0  0  0  0  0  0  0  0
    8.5428    4.3079   11.7830 C   0  0  0  0  0  0  0  0  0  0  0  0
  1  2  1  0
  2  3  2  0
  3  4  1  0
  4  5  2  0
  5  6  1  0
  6  7  2  0
  6  8  1  0
  8  9  2  0
  8 10  1  0
 10 11  1  0
 10 12  1  0
 12 13  1  0
 13 14  1  0
 14 15  2  0
 15 16  1  0
 16 17  2  0
 17 18  1  0
 18 19  2  0
 17 20  1  0
 20 21  2  0
 21 22  1  0
 22 23  2  0
 23 24  1  0
 24 25  2  0
 12 26  1  0
 26 27  2  0
 26 28  1  0
 28 29  1  0
 29 30  1  0
 30 31  1  0
 31 32  2  0
 32 33  1  0
 33 34  1  0
 34 35  2  0
 35 36  1  0
 36 37  2  0
 37 38  1  0
 38 39  2  0
 29 40  1  0
 40 41  2  0
 40 42  1  0
  4 43  1  0
  7  2  1  0
 19 14  1  0
 25 20  1  0
 39 31  1  0
 39 34  1  0
M  END
$$$$
