
     RDKit          3D

 43 47  0  0  0  0  0  0  0  0999 V2000
    5.5294    0.6869   17.3361 C   0  0  0  0  0  0  0  0  0  0  0  0
    5.3508    1.6173   16.1688 C   0  0  0  0  0  0  0  0  0  0  0  0
    6.2534    2.6296   15.9293 C   0  0  0  0  0  0  0  0  0  0  0  0
    6.1118    3.5029   14.8617 C   0  0  0  0  0  0  0  0  0  0  0  0
    5.0188    3.3156   14.0394 C   0  0  0  0  0  0  0  0  0  0  0  0
    4.0789    2.3282   14.2178 C   0  0  0  0  0  0  0  0  0  0  0  0
    4.2794    1.4795   15.3143 C   0  0  0  0  0  0  0  0  0  0  0  0
    2.9171    2.1361   13.3455 C   0  0  0  0  0  0  0  0  0  0  0  0
    2.1403    3.1092   13.2564 O   0  0  0  0  0  0  0  0  0  0  0  0
    2.6885    0.9461   12.6551 N   0  0  0  0  0  0  0  0  0  0  0  0
    3.5128   -0.2437   12.8016 C   0  0  0  0  0  0  0  0  0  0  0  0
    1.5764    0.8344   11.6946 C   0  0  0  0  0  0  0  0  0  0  0  0
    2.0683    0.4898   10.3345 C   0  0  0  0  0  0  0  0  0  0  0  0
    2.7666    1.6207    9.6868 C   0  0  0  0  0  0  0  0  0  0  0  0
    3.9241    1.4353    8.9446 C   0  0  0  0  0  0  0  0  0  0  0  0
    4.5838    2.4650    8.3069 C   0  0  0  0  0  0  0  0  0  0  0  0
    4.0979    3.7458    8.3907 C   0  0  0  0  0  0  0  0  0  0  0  0
    2.9580    3.9709    9.1131 C   0  0  0  0  0  0  0  0  0  0  0  0
    2.2983    2.9363    9.7515 C   0  0  0  0  0  0  0  0  0  0  0  0
    4.7942    4.8351    7.7144 C   0  0  0  0  0  0  0  0  0  0  0  0
    5.8924    4.6612    6.9313 C   0  0  0  0  0  0  0  0  0  0  0  0
    6.5378    5.7196    6.3004 C   0  0  0  0  0  0  0  0  0  0  0  0
    6.0487    7.0082    6.4708 C   0  0  0  0  0  0  0  0  0  0  0  0
    4.9513    7.2044    7.2500 C   0  0  0  0  0  0  0  0  0  0  0  0
    4.3237    6.1305    7.8701 C   0  0  0  0  0  0  0  0  0  0  0  0
    0.6027   -0.1003   12.2962 C   0  0  0  0  0  0  0  0  0  0  0  0
    0.1034    0.1505   13.4585 O   0  0  0  0  0  0  0  0  0  0  0  0
    0.1304   -1.2960   11.7063 N   0  0  0  0  0  0  0  0  0  0  0  0
   -1.2455   -1.7355   11.9199 C   0  0  0  0  0  0  0  0  0  0  0  0
   -2.1777   -1.1695   10.9132 C   0  0  0  0  0  0  0  0  0  0  0  0
   -1.6841   -1.4332    9.5474 C   0  0  0  0  0  0  0  0  0  0  0  0
   -0.3937   -1.7167    9.1079 C   0  0  0  0  0  0  0  0  0  0  0  0
   -0.4070   -1.8970    7.7769 N   0  0  0  0  0  0  0  0  0  0  0  0
   -1.6602   -1.7436    7.3160 C   0  0  0  0  0  0  0  0  0  0  0  0
   -2.1729   -1.8311    6.0517 C   0  0  0  0  0  0  0  0  0  0  0  0
   -3.5204   -1.6298    5.8382 C   0  0  0  0  0  0  0  0  0  0  0  0
   -4.3120   -1.3439    6.9233 C   0  0  0  0  0  0  0  0  0  0  0  0
   -3.8010   -1.2551    8.1965 C   0  0  0  0  0  0  0  0  0  0  0  0
   -2.4690   -1.4520    8.4219 C   0  0  0  0  0  0  0  0  0  0  0  0
   -1.7355   -1.4197   13.2866 C   0  0  0  0  0  0  0  0  0  0  0  0
   -1.0830   -0.7202   14.0970 O   0  0  0  0  0  0  0  0  0  0  0  0
   -2.9571   -1.8971   13.7221 O   0  0  0  0  0  0  0  0  0  0  0  0
    7.1096    4.5940   14.6292 C   0  0  0  0  0  0  0  0  0  0  0  0
  1  2  1  0
  2  3  2  0
  3  4  1  0
  4  5  2  0
  5  6  1  0
  6  7  2  0
  6  8  1  0
  8  9  2  0
  8 10  1  0
 10 11  1  0
 10 12  1  0
 12 13  1  0
 13 14  1  0
 14 15  2  0
 15 16  1  0
 16 17  2  0
 17 18  1  0
 18 19  2  0
 17 20  1  0
 20 21  2  0
 21 22  1  0
 22 23  2  0
 23 24  1  0
 24 25  2  0
 12 26  1  0
 26 27  2  0
 26 28  1  0
 28 29  1  0
 29 30  1  0
 30 31  1  0
 31 32  2  0
 32 33  1  0
 33 34  1  0
 34 35  2  0
 35 36  1  0
 36 37  2  0
 37 38  1  0
 38 39  2  0
 29 40  1  0
 40 41  2  0
 40 42  1  0
  4 43  1  0
  7  2  1  0
 19 14  1  0
 25 20  1  0
 39 31  1  0
 39 34  1  0
M  END
$$$$
