
     RDKit          3D

 43 47  0  0  0  0  0  0  0  0999 V2000
    4.1073    0.7194    5.8410 C   0  0  0  0  0  0  0  0  0  0  0  0
    4.4590    1.4299    7.1184 C   0  0  0  0  0  0  0  0  0  0  0  0
    5.2656    2.5461    7.1054 C   0  0  0  0  0  0  0  0  0  0  0  0
    5.6073    3.2193    8.2685 C   0  0  0  0  0  0  0  0  0  0  0  0
    5.1015    2.7212    9.4525 C   0  0  0  0  0  0  0  0  0  0  0  0
    4.2920    1.6135    9.5408 C   0  0  0  0  0  0  0  0  0  0  0  0
    3.9842    0.9791    8.3302 C   0  0  0  0  0  0  0  0  0  0  0  0
    3.7615    1.0849   10.8005 C   0  0  0  0  0  0  0  0  0  0  0  0
    4.6092    0.6328   11.5975 O   0  0  0  0  0  0  0  0  0  0  0  0
    2.3987    1.0853   11.0971 N   0  0  0  0  0  0  0  0  0  0  0  0
    1.3624    1.4198   10.1324 C   0  0  0  0  0  0  0  0  0  0  0  0
    1.9230    0.7561   12.4525 C   0  0  0  0  0  0  0  0  0  0  0  0
    0.9063    1.7342   12.9217 C   0  0  0  0  0  0  0  0  0  0  0  0
    1.5132    3.0115   13.3532 C   0  0  0  0  0  0  0  0  0  0  0  0
    0.7378    4.1155   13.6771 C   0  0  0  0  0  0  0  0  0  0  0  0
    1.2721    5.3119   14.1076 C   0  0  0  0  0  0  0  0  0  0  0  0
    2.6319    5.4495   14.2323 C   0  0  0  0  0  0  0  0  0  0  0  0
    3.4320    4.3836   13.9230 C   0  0  0  0  0  0  0  0  0  0  0  0
    2.8935    3.1849   13.4916 C   0  0  0  0  0  0  0  0  0  0  0  0
    3.1974    6.7143   14.6898 C   0  0  0  0  0  0  0  0  0  0  0  0
    2.5040    7.6385   15.4071 C   0  0  0  0  0  0  0  0  0  0  0  0
    3.0688    8.8379   15.8280 C   0  0  0  0  0  0  0  0  0  0  0  0
    4.3924    9.1112   15.5082 C   0  0  0  0  0  0  0  0  0  0  0  0
    5.1041    8.2003   14.7915 C   0  0  0  0  0  0  0  0  0  0  0  0
    4.5174    7.0087   14.3823 C   0  0  0  0  0  0  0  0  0  0  0  0
    1.5008   -0.6595   12.4102 C   0  0  0  0  0  0  0  0  0  0  0  0
    2.3834   -1.5967   12.4860 O   0  0  0  0  0  0  0  0  0  0  0  0
    0.1693   -1.1226   12.2955 N   0  0  0  0  0  0  0  0  0  0  0  0
   -0.1264   -2.5513   12.3498 C   0  0  0  0  0  0  0  0  0  0  0  0
   -1.1525   -2.9499   11.3541 C   0  0  0  0  0  0  0  0  0  0  0  0
   -0.6814   -2.6633    9.9850 C   0  0  0  0  0  0  0  0  0  0  0  0
    0.4081   -3.1849    9.2925 C   0  0  0  0  0  0  0  0  0  0  0  0
    0.4532   -2.6451    8.0632 N   0  0  0  0  0  0  0  0  0  0  0  0
   -0.5676   -1.7836    7.9140 C   0  0  0  0  0  0  0  0  0  0  0  0
   -0.9409   -1.0028    6.8557 C   0  0  0  0  0  0  0  0  0  0  0  0
   -2.0513   -0.1910    6.9552 C   0  0  0  0  0  0  0  0  0  0  0  0
   -2.7541   -0.1973    8.1350 C   0  0  0  0  0  0  0  0  0  0  0  0
   -2.3825   -0.9809    9.2018 C   0  0  0  0  0  0  0  0  0  0  0  0
   -1.2854   -1.7890    9.1168 C   0  0  0  0  0  0  0  0  0  0  0  0
   -0.5485   -2.9916   13.7046 C   0  0  0  0  0  0  0  0  0  0  0  0
   -0.6012   -2.2130   14.6858 O   0  0  0  0  0  0  0  0  0  0  0  0
   -0.9069   -4.3062   13.9357 O   0  0  0  0  0  0  0  0  0  0  0  0
    6.4873    4.4289    8.2210 C   0  0  0  0  0  0  0  0  0  0  0  0
  1  2  1  0
  2  3  2  0
  3  4  1  0
  4  5  2  0
  5  6  1  0
  6  7  2  0
  6  8  1  0
  8  9  2  0
  8 10  1  0
 10 11  1  0
 10 12  1  0
 12 13  1  0
 13 14  1  0
 14 15  2  0
 15 16  1  0
 16 17  2  0
 17 18  1  0
 18 19  2  0
 17 20  1  0
 20 21  2  0
 21 22  1  0
 22 23  2  0
 23 24  1  0
 24 25  2  0
 12 26  1  0
 26 27  2  0
 26 28  1  0
 28 29  1  0
 29 30  1  0
 30 31  1  0
 31 32  2  0
 32 33  1  0
 33 34  1  0
 34 35  2  0
 35 36  1  0
 36 37  2  0
 37 38  1  0
 38 39  2  0
 29 40  1  0
 40 41  2  0
 40 42  1  0
  4 43  1  0
  7  2  1  0
 19 14  1  0
 25 20  1  0
 39 31  1  0
 39 34  1  0
M  END
$$$$
