
     RDKit          3D

 43 47  0  0  0  0  0  0  0  0999 V2000
    4.6609    3.6137    8.1610 C   0  0  0  0  0  0  0  0  0  0  0  0
    4.2382    2.5448    9.1301 C   0  0  0  0  0  0  0  0  0  0  0  0
    5.0831    2.1306   10.1357 C   0  0  0  0  0  0  0  0  0  0  0  0
    4.7197    1.1456   11.0416 C   0  0  0  0  0  0  0  0  0  0  0  0
    3.4642    0.5909   10.8942 C   0  0  0  0  0  0  0  0  0  0  0  0
    2.5697    0.9545    9.9154 C   0  0  0  0  0  0  0  0  0  0  0  0
    2.9976    1.9545    9.0324 C   0  0  0  0  0  0  0  0  0  0  0  0
    1.2397    0.3592    9.7591 C   0  0  0  0  0  0  0  0  0  0  0  0
    1.1467   -0.5394    8.8976 O   0  0  0  0  0  0  0  0  0  0  0  0
    0.1445    0.7643   10.5216 N   0  0  0  0  0  0  0  0  0  0  0  0
   -1.1628    1.0674    9.9599 C   0  0  0  0  0  0  0  0  0  0  0  0
    0.2635    0.9317   11.9810 C   0  0  0  0  0  0  0  0  0  0  0  0
   -0.1378    2.2995   12.4034 C   0  0  0  0  0  0  0  0  0  0  0  0
    0.9947    3.2497   12.3791 C   0  0  0  0  0  0  0  0  0  0  0  0
    1.8937    3.3410   13.4319 C   0  0  0  0  0  0  0  0  0  0  0  0
    2.9746    4.1978   13.4282 C   0  0  0  0  0  0  0  0  0  0  0  0
    3.1995    5.0121   12.3465 C   0  0  0  0  0  0  0  0  0  0  0  0
    2.3358    4.9521   11.2871 C   0  0  0  0  0  0  0  0  0  0  0  0
    1.2528    4.0918   11.2934 C   0  0  0  0  0  0  0  0  0  0  0  0
    4.3440    5.9170   12.3412 C   0  0  0  0  0  0  0  0  0  0  0  0
    5.1450    6.1313   13.4191 C   0  0  0  0  0  0  0  0  0  0  0  0
    6.2287    7.0026   13.3857 C   0  0  0  0  0  0  0  0  0  0  0  0
    6.5118    7.6851   12.2098 C   0  0  0  0  0  0  0  0  0  0  0  0
    5.7232    7.4853   11.1197 C   0  0  0  0  0  0  0  0  0  0  0  0
    4.6459    6.6093   11.1779 C   0  0  0  0  0  0  0  0  0  0  0  0
   -0.4851   -0.1884   12.5881 C   0  0  0  0  0  0  0  0  0  0  0  0
   -1.2940    0.0342   13.5675 O   0  0  0  0  0  0  0  0  0  0  0  0
   -0.4128   -1.5438   12.1904 N   0  0  0  0  0  0  0  0  0  0  0  0
   -1.5403   -2.4440   12.4151 C   0  0  0  0  0  0  0  0  0  0  0  0
   -1.7122   -3.4151   11.3059 C   0  0  0  0  0  0  0  0  0  0  0  0
   -0.4201   -4.0409   10.9632 C   0  0  0  0  0  0  0  0  0  0  0  0
    0.8021   -3.9775   11.6273 C   0  0  0  0  0  0  0  0  0  0  0  0
    1.7086   -4.7114   10.9608 N   0  0  0  0  0  0  0  0  0  0  0  0
    1.1324   -5.2604    9.8777 C   0  0  0  0  0  0  0  0  0  0  0  0
    1.6370   -6.0777    8.9049 C   0  0  0  0  0  0  0  0  0  0  0  0
    0.8234   -6.5151    7.8809 C   0  0  0  0  0  0  0  0  0  0  0  0
   -0.4876   -6.1062    7.8762 C   0  0  0  0  0  0  0  0  0  0  0  0
   -0.9994   -5.2845    8.8524 C   0  0  0  0  0  0  0  0  0  0  0  0
   -0.2050   -4.8442    9.8716 C   0  0  0  0  0  0  0  0  0  0  0  0
   -2.8137   -1.7122   12.6392 C   0  0  0  0  0  0  0  0  0  0  0  0
   -3.0409   -1.0472   13.6775 O   0  0  0  0  0  0  0  0  0  0  0  0
   -3.8159   -1.7392   11.6880 O   0  0  0  0  0  0  0  0  0  0  0  0
    5.6615    0.7166   12.1228 C   0  0  0  0  0  0  0  0  0  0  0  0
  1  2  1  0
  2  3  2  0
  3  4  1  0
  4  5  2  0
  5  6  1  0
  6  7  2  0
  6  8  1  0
  8  9  2  0
  8 10  1  0
 10 11  1  0
 10 12  1  0
 12 13  1  0
 13 14  1  0
 14 15  2  0
 15 16  1  0
 16 17  2  0
 17 18  1  0
 18 19  2  0
 17 20  1  0
 20 21  2  0
 21 22  1  0
 22 23  2  0
 23 24  1  0
 24 25  2  0
 12 26  1  0
 26 27  2  0
 26 28  1  0
 28 29  1  0
 29 30  1  0
 30 31  1  0
 31 32  2  0
 32 33  1  0
 33 34  1  0
 34 35  2  0
 35 36  1  0
 36 37  2  0
 37 38  1  0
 38 39  2  0
 29 40  1  0
 40 41  2  0
 40 42  1  0
  4 43  1  0
  7  2  1  0
 19 14  1  0
 25 20  1  0
 39 31  1  0
 39 34  1  0
M  END
$$$$
