
     RDKit          3D

 43 47  0  0  0  0  0  0  0  0999 V2000
    1.0596    5.3948   13.0946 C   0  0  0  0  0  0  0  0  0  0  0  0
    1.2863    3.9205   13.2825 C   0  0  0  0  0  0  0  0  0  0  0  0
    0.6561    3.2338   14.2964 C   0  0  0  0  0  0  0  0  0  0  0  0
    0.8486    1.8748   14.4937 C   0  0  0  0  0  0  0  0  0  0  0  0
    1.7058    1.2305   13.6243 C   0  0  0  0  0  0  0  0  0  0  0  0
    2.3681    1.8512   12.5917 C   0  0  0  0  0  0  0  0  0  0  0  0
    2.1308    3.2243   12.4464 C   0  0  0  0  0  0  0  0  0  0  0  0
    3.2815    1.1645   11.6742 C   0  0  0  0  0  0  0  0  0  0  0  0
    4.4079    0.8896   12.1367 O   0  0  0  0  0  0  0  0  0  0  0  0
    2.9215    0.8347   10.3677 N   0  0  0  0  0  0  0  0  0  0  0  0
    2.4006   -0.4664    9.9776 C   0  0  0  0  0  0  0  0  0  0  0  0
    3.0742    1.8119    9.2752 C   0  0  0  0  0  0  0  0  0  0  0  0
    4.3869    2.5060    9.3493 C   0  0  0  0  0  0  0  0  0  0  0  0
    4.4678    3.4331   10.4981 C   0  0  0  0  0  0  0  0  0  0  0  0
    5.4580    3.3155   11.4629 C   0  0  0  0  0  0  0  0  0  0  0  0
    5.5760    4.1796   12.5314 C   0  0  0  0  0  0  0  0  0  0  0  0
    4.6876    5.2157   12.6759 C   0  0  0  0  0  0  0  0  0  0  0  0
    3.6961    5.3666   11.7452 C   0  0  0  0  0  0  0  0  0  0  0  0
    3.5802    4.4987   10.6746 C   0  0  0  0  0  0  0  0  0  0  0  0
    4.8134    6.1314   13.8048 C   0  0  0  0  0  0  0  0  0  0  0  0
    5.4958    5.8394   14.9443 C   0  0  0  0  0  0  0  0  0  0  0  0
    5.5970    6.7318   16.0064 C   0  0  0  0  0  0  0  0  0  0  0  0
    4.9802    7.9723   15.9086 C   0  0  0  0  0  0  0  0  0  0  0  0
    4.2925    8.2846   14.7774 C   0  0  0  0  0  0  0  0  0  0  0  0
    4.2058    7.3759   13.7295 C   0  0  0  0  0  0  0  0  0  0  0  0
    2.7888    1.0805    8.0233 C   0  0  0  0  0  0  0  0  0  0  0  0
    3.7286    0.8896    7.1610 O   0  0  0  0  0  0  0  0  0  0  0  0
    1.5381    0.5350    7.6505 N   0  0  0  0  0  0  0  0  0  0  0  0
    1.0645    0.6387    6.2733 C   0  0  0  0  0  0  0  0  0  0  0  0
    0.5874   -0.6636    5.7448 C   0  0  0  0  0  0  0  0  0  0  0  0
    0.0104   -1.4807    6.8302 C   0  0  0  0  0  0  0  0  0  0  0  0
    0.5487   -2.5760    7.5005 C   0  0  0  0  0  0  0  0  0  0  0  0
   -0.3257   -3.0042    8.4260 N   0  0  0  0  0  0  0  0  0  0  0  0
   -1.4256   -2.2324    8.3949 C   0  0  0  0  0  0  0  0  0  0  0  0
   -2.5742   -2.2697    9.1354 C   0  0  0  0  0  0  0  0  0  0  0  0
   -3.5726   -1.3461    8.9068 C   0  0  0  0  0  0  0  0  0  0  0  0
   -3.3723   -0.4058    7.9262 C   0  0  0  0  0  0  0  0  0  0  0  0
   -2.2189   -0.3645    7.1792 C   0  0  0  0  0  0  0  0  0  0  0  0
   -1.2228   -1.2727    7.3950 C   0  0  0  0  0  0  0  0  0  0  0  0
    2.0937    1.2005    5.3609 C   0  0  0  0  0  0  0  0  0  0  0  0
    3.3008    1.3064    5.6823 O   0  0  0  0  0  0  0  0  0  0  0  0
    1.7479    1.6357    4.0955 O   0  0  0  0  0  0  0  0  0  0  0  0
    0.1498    1.1574   15.6060 C   0  0  0  0  0  0  0  0  0  0  0  0
  1  2  1  0
  2  3  2  0
  3  4  1  0
  4  5  2  0
  5  6  1  0
  6  7  2  0
  6  8  1  0
  8  9  2  0
  8 10  1  0
 10 11  1  0
 10 12  1  0
 12 13  1  0
 13 14  1  0
 14 15  2  0
 15 16  1  0
 16 17  2  0
 17 18  1  0
 18 19  2  0
 17 20  1  0
 20 21  2  0
 21 22  1  0
 22 23  2  0
 23 24  1  0
 24 25  2  0
 12 26  1  0
 26 27  2  0
 26 28  1  0
 28 29  1  0
 29 30  1  0
 30 31  1  0
 31 32  2  0
 32 33  1  0
 33 34  1  0
 34 35  2  0
 35 36  1  0
 36 37  2  0
 37 38  1  0
 38 39  2  0
 29 40  1  0
 40 41  2  0
 40 42  1  0
  4 43  1  0
  7  2  1  0
 19 14  1  0
 25 20  1  0
 39 31  1  0
 39 34  1  0
M  END
$$$$
