
     RDKit          3D

 43 47  0  0  0  0  0  0  0  0999 V2000
    7.0392    5.6664   15.5268 C   0  0  0  0  0  0  0  0  0  0  0  0
    5.8350    4.7924   15.7420 C   0  0  0  0  0  0  0  0  0  0  0  0
    5.4340    4.4451   17.0130 C   0  0  0  0  0  0  0  0  0  0  0  0
    4.3288    3.6391   17.2402 C   0  0  0  0  0  0  0  0  0  0  0  0
    3.6389    3.1940   16.1303 C   0  0  0  0  0  0  0  0  0  0  0  0
    3.9814    3.5001   14.8345 C   0  0  0  0  0  0  0  0  0  0  0  0
    5.1074    4.3180   14.6732 C   0  0  0  0  0  0  0  0  0  0  0  0
    3.2494    3.0211   13.6588 C   0  0  0  0  0  0  0  0  0  0  0  0
    2.1319    3.5432   13.4671 O   0  0  0  0  0  0  0  0  0  0  0  0
    3.7629    2.0461   12.8038 N   0  0  0  0  0  0  0  0  0  0  0  0
    4.9899    1.3091   13.0638 C   0  0  0  0  0  0  0  0  0  0  0  0
    3.0781    1.7154   11.5415 C   0  0  0  0  0  0  0  0  0  0  0  0
    4.0486    1.5412   10.4287 C   0  0  0  0  0  0  0  0  0  0  0  0
    3.3909    1.5438    9.1045 C   0  0  0  0  0  0  0  0  0  0  0  0
    2.0278    1.7625    8.9668 C   0  0  0  0  0  0  0  0  0  0  0  0
    1.3894    1.7971    7.7447 C   0  0  0  0  0  0  0  0  0  0  0  0
    2.1083    1.6099    6.5908 C   0  0  0  0  0  0  0  0  0  0  0  0
    3.4558    1.3915    6.6834 C   0  0  0  0  0  0  0  0  0  0  0  0
    4.0935    1.3575    7.9103 C   0  0  0  0  0  0  0  0  0  0  0  0
    1.4338    1.6485    5.2976 C   0  0  0  0  0  0  0  0  0  0  0  0
    0.1494    2.0610    5.1255 C   0  0  0  0  0  0  0  0  0  0  0  0
   -0.4692    2.0849    3.8799 C   0  0  0  0  0  0  0  0  0  0  0  0
    0.2449    1.6732    2.7621 C   0  0  0  0  0  0  0  0  0  0  0  0
    1.5310    1.2568    2.9120 C   0  0  0  0  0  0  0  0  0  0  0  0
    2.1273    1.2421    4.1673 C   0  0  0  0  0  0  0  0  0  0  0  0
    2.2034    0.5611   11.8356 C   0  0  0  0  0  0  0  0  0  0  0  0
    2.4902   -0.2313   12.8117 O   0  0  0  0  0  0  0  0  0  0  0  0
    1.0253    0.2157   11.1333 N   0  0  0  0  0  0  0  0  0  0  0  0
    0.2915   -1.0012   11.4687 C   0  0  0  0  0  0  0  0  0  0  0  0
   -0.8899   -1.2031   10.5932 C   0  0  0  0  0  0  0  0  0  0  0  0
   -0.4840   -1.2163    9.1741 C   0  0  0  0  0  0  0  0  0  0  0  0
    0.0388   -2.2554    8.4088 C   0  0  0  0  0  0  0  0  0  0  0  0
    0.2546   -1.8199    7.1565 N   0  0  0  0  0  0  0  0  0  0  0  0
   -0.1063   -0.5287    7.0622 C   0  0  0  0  0  0  0  0  0  0  0  0
   -0.0780    0.3405    6.0074 C   0  0  0  0  0  0  0  0  0  0  0  0
   -0.5146    1.6384    6.1711 C   0  0  0  0  0  0  0  0  0  0  0  0
   -0.9704    2.0165    7.4101 C   0  0  0  0  0  0  0  0  0  0  0  0
   -1.0009    1.1458    8.4737 C   0  0  0  0  0  0  0  0  0  0  0  0
   -0.5715   -0.1416    8.3254 C   0  0  0  0  0  0  0  0  0  0  0  0
   -0.1316   -1.0334   12.8926 C   0  0  0  0  0  0  0  0  0  0  0  0
   -1.3290   -1.1583   13.2424 O   0  0  0  0  0  0  0  0  0  0  0  0
    0.8027   -0.9248   13.9053 O   0  0  0  0  0  0  0  0  0  0  0  0
    3.9195    3.2784   18.6339 C   0  0  0  0  0  0  0  0  0  0  0  0
  1  2  1  0
  2  3  2  0
  3  4  1  0
  4  5  2  0
  5  6  1  0
  6  7  2  0
  6  8  1  0
  8  9  2  0
  8 10  1  0
 10 11  1  0
 10 12  1  0
 12 13  1  0
 13 14  1  0
 14 15  2  0
 15 16  1  0
 16 17  2  0
 17 18  1  0
 18 19  2  0
 17 20  1  0
 20 21  2  0
 21 22  1  0
 22 23  2  0
 23 24  1  0
 24 25  2  0
 12 26  1  0
 26 27  2  0
 26 28  1  0
 28 29  1  0
 29 30  1  0
 30 31  1  0
 31 32  2  0
 32 33  1  0
 33 34  1  0
 34 35  2  0
 35 36  1  0
 36 37  2  0
 37 38  1  0
 38 39  2  0
 29 40  1  0
 40 41  2  0
 40 42  1  0
  4 43  1  0
  7  2  1  0
 19 14  1  0
 25 20  1  0
 39 31  1  0
 39 34  1  0
M  END
$$$$
