
     RDKit          3D

 43 47  0  0  0  0  0  0  0  0999 V2000
   -1.8257    1.2617    5.8925 C   0  0  0  0  0  0  0  0  0  0  0  0
   -0.8229    0.5217    6.7334 C   0  0  0  0  0  0  0  0  0  0  0  0
    0.5220    0.5820    6.4431 C   0  0  0  0  0  0  0  0  0  0  0  0
    1.4681   -0.0920    7.2005 C   0  0  0  0  0  0  0  0  0  0  0  0
    1.0036   -0.8334    8.2683 C   0  0  0  0  0  0  0  0  0  0  0  0
   -0.3224   -0.9392    8.6161 C   0  0  0  0  0  0  0  0  0  0  0  0
   -1.2270   -0.2346    7.8112 C   0  0  0  0  0  0  0  0  0  0  0  0
   -0.8117   -1.7318    9.7474 C   0  0  0  0  0  0  0  0  0  0  0  0
   -1.5066   -2.7258    9.4517 O   0  0  0  0  0  0  0  0  0  0  0  0
   -0.5223   -1.4036   11.0717 N   0  0  0  0  0  0  0  0  0  0  0  0
   -0.9336   -2.2085   12.2116 C   0  0  0  0  0  0  0  0  0  0  0  0
    0.2217   -0.1738   11.3973 C   0  0  0  0  0  0  0  0  0  0  0  0
   -0.6223    0.7835   12.1601 C   0  0  0  0  0  0  0  0  0  0  0  0
    0.0636    2.0718   12.3965 C   0  0  0  0  0  0  0  0  0  0  0  0
    0.5372    2.4271   13.6513 C   0  0  0  0  0  0  0  0  0  0  0  0
    1.2038    3.6090   13.8986 C   0  0  0  0  0  0  0  0  0  0  0  0
    1.4253    4.4974   12.8763 C   0  0  0  0  0  0  0  0  0  0  0  0
    0.9741    4.1842   11.6233 C   0  0  0  0  0  0  0  0  0  0  0  0
    0.3061    2.9981   11.3780 C   0  0  0  0  0  0  0  0  0  0  0  0
    2.1323    5.7468   13.1371 C   0  0  0  0  0  0  0  0  0  0  0  0
    2.5688    6.5878   12.1615 C   0  0  0  0  0  0  0  0  0  0  0  0
    3.2430    7.7721   12.4398 C   0  0  0  0  0  0  0  0  0  0  0  0
    3.4845    8.1180   13.7630 C   0  0  0  0  0  0  0  0  0  0  0  0
    3.0564    7.2910   14.7544 C   0  0  0  0  0  0  0  0  0  0  0  0
    2.3846    6.1128   14.4509 C   0  0  0  0  0  0  0  0  0  0  0  0
    1.4739   -0.6087   12.0504 C   0  0  0  0  0  0  0  0  0  0  0  0
    1.4282   -1.2366   13.1759 O   0  0  0  0  0  0  0  0  0  0  0  0
    2.7814   -0.4072   11.5498 N   0  0  0  0  0  0  0  0  0  0  0  0
    3.8317    0.1269   12.4121 C   0  0  0  0  0  0  0  0  0  0  0  0
    5.0215    0.5656   11.6407 C   0  0  0  0  0  0  0  0  0  0  0  0
    4.6407    1.5785   10.6369 C   0  0  0  0  0  0  0  0  0  0  0  0
    3.7266    1.4927    9.5901 C   0  0  0  0  0  0  0  0  0  0  0  0
    3.6931    2.6634    8.9323 N   0  0  0  0  0  0  0  0  0  0  0  0
    4.5521    3.5242    9.5046 C   0  0  0  0  0  0  0  0  0  0  0  0
    4.8667    4.8196    9.2012 C   0  0  0  0  0  0  0  0  0  0  0  0
    5.7975    5.4990    9.9587 C   0  0  0  0  0  0  0  0  0  0  0  0
    6.3846    4.8373   11.0091 C   0  0  0  0  0  0  0  0  0  0  0  0
    6.0713    3.5348   11.3180 C   0  0  0  0  0  0  0  0  0  0  0  0
    5.1517    2.8505   10.5764 C   0  0  0  0  0  0  0  0  0  0  0  0
    4.2466   -0.8374   13.4634 C   0  0  0  0  0  0  0  0  0  0  0  0
    5.3877   -0.8265   13.9825 O   0  0  0  0  0  0  0  0  0  0  0  0
    3.3677   -1.8028   13.9170 O   0  0  0  0  0  0  0  0  0  0  0  0
    2.9226   -0.0074    6.8582 C   0  0  0  0  0  0  0  0  0  0  0  0
  1  2  1  0
  2  3  2  0
  3  4  1  0
  4  5  2  0
  5  6  1  0
  6  7  2  0
  6  8  1  0
  8  9  2  0
  8 10  1  0
 10 11  1  0
 10 12  1  0
 12 13  1  0
 13 14  1  0
 14 15  2  0
 15 16  1  0
 16 17  2  0
 17 18  1  0
 18 19  2  0
 17 20  1  0
 20 21  2  0
 21 22  1  0
 22 23  2  0
 23 24  1  0
 24 25  2  0
 12 26  1  0
 26 27  2  0
 26 28  1  0
 28 29  1  0
 29 30  1  0
 30 31  1  0
 31 32  2  0
 32 33  1  0
 33 34  1  0
 34 35  2  0
 35 36  1  0
 36 37  2  0
 37 38  1  0
 38 39  2  0
 29 40  1  0
 40 41  2  0
 40 42  1  0
  4 43  1  0
  7  2  1  0
 19 14  1  0
 25 20  1  0
 39 31  1  0
 39 34  1  0
M  END
$$$$
