
     RDKit          3D

 43 47  0  0  0  0  0  0  0  0999 V2000
    0.2550   -0.3349    4.4837 C   0  0  0  0  0  0  0  0  0  0  0  0
    1.0035   -0.1294    5.7713 C   0  0  0  0  0  0  0  0  0  0  0  0
    2.1403    0.6471    5.8098 C   0  0  0  0  0  0  0  0  0  0  0  0
    2.8510    0.8517    6.9828 C   0  0  0  0  0  0  0  0  0  0  0  0
    2.3687    0.2399    8.1225 C   0  0  0  0  0  0  0  0  0  0  0  0
    1.2425   -0.5478    8.1582 C   0  0  0  0  0  0  0  0  0  0  0  0
    0.5704   -0.7148    6.9403 C   0  0  0  0  0  0  0  0  0  0  0  0
    0.7370   -1.1999    9.3693 C   0  0  0  0  0  0  0  0  0  0  0  0
    0.9429   -2.4285    9.4488 O   0  0  0  0  0  0  0  0  0  0  0  0
    0.0695   -0.4988   10.3734 N   0  0  0  0  0  0  0  0  0  0  0  0
   -1.2235   -0.8932   10.9110 C   0  0  0  0  0  0  0  0  0  0  0  0
    0.6483    0.7294   10.9465 C   0  0  0  0  0  0  0  0  0  0  0  0
   -0.2962    1.8729   10.8417 C   0  0  0  0  0  0  0  0  0  0  0  0
    0.2482    3.1078   11.4455 C   0  0  0  0  0  0  0  0  0  0  0  0
    1.5124    3.1457   12.0159 C   0  0  0  0  0  0  0  0  0  0  0  0
    2.0586    4.2878   12.5633 C   0  0  0  0  0  0  0  0  0  0  0  0
    1.3433    5.4590   12.5594 C   0  0  0  0  0  0  0  0  0  0  0  0
    0.0921    5.4639   12.0058 C   0  0  0  0  0  0  0  0  0  0  0  0
   -0.4531    4.3171   11.4574 C   0  0  0  0  0  0  0  0  0  0  0  0
    1.9216    6.6679   13.1364 C   0  0  0  0  0  0  0  0  0  0  0  0
    1.4788    7.9244   12.8627 C   0  0  0  0  0  0  0  0  0  0  0  0
    2.0516    9.0598   13.4261 C   0  0  0  0  0  0  0  0  0  0  0  0
    3.1180    8.9148   14.3039 C   0  0  0  0  0  0  0  0  0  0  0  0
    3.5765    7.6669   14.5914 C   0  0  0  0  0  0  0  0  0  0  0  0
    2.9874    6.5476   14.0157 C   0  0  0  0  0  0  0  0  0  0  0  0
    1.1022    0.3764   12.3078 C   0  0  0  0  0  0  0  0  0  0  0  0
    0.3675    0.6675   13.3269 O   0  0  0  0  0  0  0  0  0  0  0  0
    2.3109   -0.2829   12.6319 N   0  0  0  0  0  0  0  0  0  0  0  0
    2.5712   -0.7252   13.9988 C   0  0  0  0  0  0  0  0  0  0  0  0
    4.0063   -0.6138   14.3607 C   0  0  0  0  0  0  0  0  0  0  0  0
    4.8041   -0.2073   13.1873 C   0  0  0  0  0  0  0  0  0  0  0  0
    5.5132   -0.9902   12.2801 C   0  0  0  0  0  0  0  0  0  0  0  0
    6.0863   -0.1961   11.3606 N   0  0  0  0  0  0  0  0  0  0  0  0
    5.7831    1.0865   11.6241 C   0  0  0  0  0  0  0  0  0  0  0  0
    6.1248    2.2439   10.9818 C   0  0  0  0  0  0  0  0  0  0  0  0
    5.6748    3.4568   11.4596 C   0  0  0  0  0  0  0  0  0  0  0  0
    4.8855    3.4571   12.5833 C   0  0  0  0  0  0  0  0  0  0  0  0
    4.5392    2.2958   13.2325 C   0  0  0  0  0  0  0  0  0  0  0  0
    4.9779    1.0884   12.7703 C   0  0  0  0  0  0  0  0  0  0  0  0
    2.1011   -2.1130   14.2446 C   0  0  0  0  0  0  0  0  0  0  0  0
    2.7537   -3.1235   13.8913 O   0  0  0  0  0  0  0  0  0  0  0  0
    0.8994   -2.3438   14.8870 O   0  0  0  0  0  0  0  0  0  0  0  0
    4.0838    1.7003    6.9914 C   0  0  0  0  0  0  0  0  0  0  0  0
  1  2  1  0
  2  3  2  0
  3  4  1  0
  4  5  2  0
  5  6  1  0
  6  7  2  0
  6  8  1  0
  8  9  2  0
  8 10  1  0
 10 11  1  0
 10 12  1  0
 12 13  1  0
 13 14  1  0
 14 15  2  0
 15 16  1  0
 16 17  2  0
 17 18  1  0
 18 19  2  0
 17 20  1  0
 20 21  2  0
 21 22  1  0
 22 23  2  0
 23 24  1  0
 24 25  2  0
 12 26  1  0
 26 27  2  0
 26 28  1  0
 28 29  1  0
 29 30  1  0
 30 31  1  0
 31 32  2  0
 32 33  1  0
 33 34  1  0
 34 35  2  0
 35 36  1  0
 36 37  2  0
 37 38  1  0
 38 39  2  0
 29 40  1  0
 40 41  2  0
 40 42  1  0
  4 43  1  0
  7  2  1  0
 19 14  1  0
 25 20  1  0
 39 31  1  0
 39 34  1  0
M  END
$$$$
