
     RDKit          3D

 43 47  0  0  0  0  0  0  0  0999 V2000
    2.1385    3.3730   13.9050 C   0  0  0  0  0  0  0  0  0  0  0  0
    1.4883    2.4373   12.9242 C   0  0  0  0  0  0  0  0  0  0  0  0
    0.2432    2.7142   12.4046 C   0  0  0  0  0  0  0  0  0  0  0  0
   -0.3804    1.8680   11.5002 C   0  0  0  0  0  0  0  0  0  0  0  0
    0.3034    0.7250   11.1373 C   0  0  0  0  0  0  0  0  0  0  0  0
    1.5469    0.3849   11.6150 C   0  0  0  0  0  0  0  0  0  0  0  0
    2.1221    1.2815   12.5251 C   0  0  0  0  0  0  0  0  0  0  0  0
    2.2671   -0.8323   11.2312 C   0  0  0  0  0  0  0  0  0  0  0  0
    2.8473   -1.4333   12.1588 O   0  0  0  0  0  0  0  0  0  0  0  0
    2.3046   -1.2962    9.9165 N   0  0  0  0  0  0  0  0  0  0  0  0
    2.9647   -2.5284    9.5134 C   0  0  0  0  0  0  0  0  0  0  0  0
    1.6748   -0.5273    8.8284 C   0  0  0  0  0  0  0  0  0  0  0  0
    2.6731   -0.1216    7.8040 C   0  0  0  0  0  0  0  0  0  0  0  0
    3.4885    1.0319    8.2406 C   0  0  0  0  0  0  0  0  0  0  0  0
    4.5697    0.8794    9.0965 C   0  0  0  0  0  0  0  0  0  0  0  0
    5.3653    1.9309    9.5010 C   0  0  0  0  0  0  0  0  0  0  0  0
    5.1015    3.2012    9.0534 C   0  0  0  0  0  0  0  0  0  0  0  0
    4.0438    3.3940    8.2072 C   0  0  0  0  0  0  0  0  0  0  0  0
    3.2477    2.3376    7.8030 C   0  0  0  0  0  0  0  0  0  0  0  0
    5.9441    4.3135    9.4793 C   0  0  0  0  0  0  0  0  0  0  0  0
    5.8945    5.5556    8.9277 C   0  0  0  0  0  0  0  0  0  0  0  0
    6.7125    6.5972    9.3527 C   0  0  0  0  0  0  0  0  0  0  0  0
    7.6187    6.3695   10.3802 C   0  0  0  0  0  0  0  0  0  0  0  0
    7.6846    5.1344   10.9459 C   0  0  0  0  0  0  0  0  0  0  0  0
    6.8565    4.1095   10.5038 C   0  0  0  0  0  0  0  0  0  0  0  0
    0.5384   -1.3421    8.3502 C   0  0  0  0  0  0  0  0  0  0  0  0
    0.2046   -1.3126    7.1049 O   0  0  0  0  0  0  0  0  0  0  0  0
   -0.2594   -2.1970    9.1460 N   0  0  0  0  0  0  0  0  0  0  0  0
   -1.6424   -1.8457    9.4553 C   0  0  0  0  0  0  0  0  0  0  0  0
   -2.2096   -2.6955   10.5318 C   0  0  0  0  0  0  0  0  0  0  0  0
   -1.2428   -2.8408   11.6377 C   0  0  0  0  0  0  0  0  0  0  0  0
   -0.2024   -3.7528   11.7948 C   0  0  0  0  0  0  0  0  0  0  0  0
    0.4289   -3.5111   12.9556 N   0  0  0  0  0  0  0  0  0  0  0  0
   -0.1546   -2.4710   13.5754 C   0  0  0  0  0  0  0  0  0  0  0  0
    0.1260   -1.8572   14.7643 C   0  0  0  0  0  0  0  0  0  0  0  0
   -0.6352   -0.7867   15.1845 C   0  0  0  0  0  0  0  0  0  0  0  0
   -1.6655   -0.3691   14.3784 C   0  0  0  0  0  0  0  0  0  0  0  0
   -1.9513   -0.9832   13.1820 C   0  0  0  0  0  0  0  0  0  0  0  0
   -1.2059   -2.0439   12.7542 C   0  0  0  0  0  0  0  0  0  0  0  0
   -2.5224   -1.9020    8.2595 C   0  0  0  0  0  0  0  0  0  0  0  0
   -2.4039   -1.1139    7.2917 O   0  0  0  0  0  0  0  0  0  0  0  0
   -3.5258   -2.8482    8.1701 O   0  0  0  0  0  0  0  0  0  0  0  0
   -1.7348    2.1967   10.9548 C   0  0  0  0  0  0  0  0  0  0  0  0
  1  2  1  0
  2  3  2  0
  3  4  1  0
  4  5  2  0
  5  6  1  0
  6  7  2  0
  6  8  1  0
  8  9  2  0
  8 10  1  0
 10 11  1  0
 10 12  1  0
 12 13  1  0
 13 14  1  0
 14 15  2  0
 15 16  1  0
 16 17  2  0
 17 18  1  0
 18 19  2  0
 17 20  1  0
 20 21  2  0
 21 22  1  0
 22 23  2  0
 23 24  1  0
 24 25  2  0
 12 26  1  0
 26 27  2  0
 26 28  1  0
 28 29  1  0
 29 30  1  0
 30 31  1  0
 31 32  2  0
 32 33  1  0
 33 34  1  0
 34 35  2  0
 35 36  1  0
 36 37  2  0
 37 38  1  0
 38 39  2  0
 29 40  1  0
 40 41  2  0
 40 42  1  0
  4 43  1  0
  7  2  1  0
 19 14  1  0
 25 20  1  0
 39 31  1  0
 39 34  1  0
M  END
$$$$
