
     RDKit          3D

 43 47  0  0  0  0  0  0  0  0999 V2000
    0.1175   -1.1658    5.7275 C   0  0  0  0  0  0  0  0  0  0  0  0
    0.8634   -0.6149    6.9109 C   0  0  0  0  0  0  0  0  0  0  0  0
    1.6003    0.5436    6.8030 C   0  0  0  0  0  0  0  0  0  0  0  0
    2.2993    1.0726    7.8774 C   0  0  0  0  0  0  0  0  0  0  0  0
    2.2264    0.3850    9.0722 C   0  0  0  0  0  0  0  0  0  0  0  0
    1.5117   -0.7756    9.2526 C   0  0  0  0  0  0  0  0  0  0  0  0
    0.8282   -1.2575    8.1286 C   0  0  0  0  0  0  0  0  0  0  0  0
    1.4413   -1.5054   10.5215 C   0  0  0  0  0  0  0  0  0  0  0  0
    1.6863   -2.7277   10.4572 O   0  0  0  0  0  0  0  0  0  0  0  0
    1.1234   -0.8806   11.7272 N   0  0  0  0  0  0  0  0  0  0  0  0
    0.8275   -1.6004   12.9563 C   0  0  0  0  0  0  0  0  0  0  0  0
    1.0482    0.5884   11.8171 C   0  0  0  0  0  0  0  0  0  0  0  0
   -0.2606    1.0308   12.3666 C   0  0  0  0  0  0  0  0  0  0  0  0
   -1.3870    0.7033   11.4666 C   0  0  0  0  0  0  0  0  0  0  0  0
   -1.1819    0.3340   10.1451 C   0  0  0  0  0  0  0  0  0  0  0  0
   -2.2090   -0.0026    9.2882 C   0  0  0  0  0  0  0  0  0  0  0  0
   -3.5071    0.0188    9.7332 C   0  0  0  0  0  0  0  0  0  0  0  0
   -3.7519    0.3774   11.0306 C   0  0  0  0  0  0  0  0  0  0  0  0
   -2.7200    0.7143   11.8878 C   0  0  0  0  0  0  0  0  0  0  0  0
   -4.5937   -0.3392    8.8277 C   0  0  0  0  0  0  0  0  0  0  0  0
   -4.4530   -0.4415    7.4789 C   0  0  0  0  0  0  0  0  0  0  0  0
   -5.5082   -0.7826    6.6394 C   0  0  0  0  0  0  0  0  0  0  0  0
   -6.7585   -1.0302    7.1909 C   0  0  0  0  0  0  0  0  0  0  0  0
   -6.9211   -0.9335    8.5379 C   0  0  0  0  0  0  0  0  0  0  0  0
   -5.8511   -0.5911    9.3560 C   0  0  0  0  0  0  0  0  0  0  0  0
    2.2508    1.0195   12.5599 C   0  0  0  0  0  0  0  0  0  0  0  0
    2.1448    1.4121   13.7837 O   0  0  0  0  0  0  0  0  0  0  0  0
    3.5712    1.0450   12.0534 N   0  0  0  0  0  0  0  0  0  0  0  0
    4.6240    1.7663   12.7626 C   0  0  0  0  0  0  0  0  0  0  0  0
    5.8834    1.8326   11.9802 C   0  0  0  0  0  0  0  0  0  0  0  0
    5.8997    3.0392   11.1301 C   0  0  0  0  0  0  0  0  0  0  0  0
    5.8292    4.3820   11.4914 C   0  0  0  0  0  0  0  0  0  0  0  0
    5.8879    5.1432   10.3862 N   0  0  0  0  0  0  0  0  0  0  0  0
    5.9952    4.3543    9.3033 C   0  0  0  0  0  0  0  0  0  0  0  0
    6.0882    4.6566    7.9733 C   0  0  0  0  0  0  0  0  0  0  0  0
    6.1935    3.6452    7.0417 C   0  0  0  0  0  0  0  0  0  0  0  0
    6.2012    2.3481    7.4927 C   0  0  0  0  0  0  0  0  0  0  0  0
    6.1080    2.0393    8.8291 C   0  0  0  0  0  0  0  0  0  0  0  0
    6.0032    3.0307    9.7618 C   0  0  0  0  0  0  0  0  0  0  0  0
    4.9000    1.1911   14.1044 C   0  0  0  0  0  0  0  0  0  0  0  0
    5.6225    1.7647   14.9534 O   0  0  0  0  0  0  0  0  0  0  0  0
    4.3565   -0.0252   14.4723 O   0  0  0  0  0  0  0  0  0  0  0  0
    3.0922    2.3331    7.7273 C   0  0  0  0  0  0  0  0  0  0  0  0
  1  2  1  0
  2  3  2  0
  3  4  1  0
  4  5  2  0
  5  6  1  0
  6  7  2  0
  6  8  1  0
  8  9  2  0
  8 10  1  0
 10 11  1  0
 10 12  1  0
 12 13  1  0
 13 14  1  0
 14 15  2  0
 15 16  1  0
 16 17  2  0
 17 18  1  0
 18 19  2  0
 17 20  1  0
 20 21  2  0
 21 22  1  0
 22 23  2  0
 23 24  1  0
 24 25  2  0
 12 26  1  0
 26 27  2  0
 26 28  1  0
 28 29  1  0
 29 30  1  0
 30 31  1  0
 31 32  2  0
 32 33  1  0
 33 34  1  0
 34 35  2  0
 35 36  1  0
 36 37  2  0
 37 38  1  0
 38 39  2  0
 29 40  1  0
 40 41  2  0
 40 42  1  0
  4 43  1  0
  7  2  1  0
 19 14  1  0
 25 20  1  0
 39 31  1  0
 39 34  1  0
M  END
$$$$
