
     RDKit          3D

 43 47  0  0  0  0  0  0  0  0999 V2000
   -1.6424    1.3006   12.6699 C   0  0  0  0  0  0  0  0  0  0  0  0
   -0.2533    1.3668   12.0986 C   0  0  0  0  0  0  0  0  0  0  0  0
    0.5135    2.5022   12.2390 C   0  0  0  0  0  0  0  0  0  0  0  0
    1.7964    2.5912   11.7205 C   0  0  0  0  0  0  0  0  0  0  0  0
    2.2799    1.4849   11.0511 C   0  0  0  0  0  0  0  0  0  0  0  0
    1.5717    0.3200   10.8727 C   0  0  0  0  0  0  0  0  0  0  0  0
    0.2824    0.2946   11.4203 C   0  0  0  0  0  0  0  0  0  0  0  0
    2.0868   -0.8502   10.1566 C   0  0  0  0  0  0  0  0  0  0  0  0
    2.3750   -1.8357   10.8665 O   0  0  0  0  0  0  0  0  0  0  0  0
    2.2457   -0.8694    8.7711 N   0  0  0  0  0  0  0  0  0  0  0  0
    3.1528   -1.7685    8.0746 C   0  0  0  0  0  0  0  0  0  0  0  0
    1.4938    0.0644    7.9140 C   0  0  0  0  0  0  0  0  0  0  0  0
    2.3576    0.6344    6.8465 C   0  0  0  0  0  0  0  0  0  0  0  0
    3.3683    1.5710    7.3825 C   0  0  0  0  0  0  0  0  0  0  0  0
    3.4613    1.8468    8.7390 C   0  0  0  0  0  0  0  0  0  0  0  0
    4.4091    2.6948    9.2728 C   0  0  0  0  0  0  0  0  0  0  0  0
    5.3182    3.3109    8.4497 C   0  0  0  0  0  0  0  0  0  0  0  0
    5.2604    3.0651    7.1050 C   0  0  0  0  0  0  0  0  0  0  0  0
    4.3089    2.2141    6.5725 C   0  0  0  0  0  0  0  0  0  0  0  0
    6.3224    4.2064    9.0141 C   0  0  0  0  0  0  0  0  0  0  0  0
    6.4299    4.4832   10.3412 C   0  0  0  0  0  0  0  0  0  0  0  0
    7.3965    5.3437   10.8511 C   0  0  0  0  0  0  0  0  0  0  0  0
    8.2916    5.9486    9.9783 C   0  0  0  0  0  0  0  0  0  0  0  0
    8.2016    5.6854    8.6469 C   0  0  0  0  0  0  0  0  0  0  0  0
    7.2269    4.8217    8.1616 C   0  0  0  0  0  0  0  0  0  0  0  0
    0.2902   -0.6653    7.4639 C   0  0  0  0  0  0  0  0  0  0  0  0
    0.4096   -1.6801    6.6771 O   0  0  0  0  0  0  0  0  0  0  0  0
   -1.0439   -0.3618    7.8228 N   0  0  0  0  0  0  0  0  0  0  0  0
   -1.7630   -1.1975    8.7800 C   0  0  0  0  0  0  0  0  0  0  0  0
   -2.1570   -2.5048    8.1981 C   0  0  0  0  0  0  0  0  0  0  0  0
   -1.1691   -3.5441    8.5481 C   0  0  0  0  0  0  0  0  0  0  0  0
   -0.5814   -4.5181    7.7452 C   0  0  0  0  0  0  0  0  0  0  0  0
    0.2721   -5.2469    8.4835 N   0  0  0  0  0  0  0  0  0  0  0  0
    0.2727   -4.7919    9.7481 C   0  0  0  0  0  0  0  0  0  0  0  0
    0.9675   -5.1997   10.8526 C   0  0  0  0  0  0  0  0  0  0  0  0
    0.7886   -4.5534   12.0577 C   0  0  0  0  0  0  0  0  0  0  0  0
   -0.0968   -3.5047   12.1045 C   0  0  0  0  0  0  0  0  0  0  0  0
   -0.7976   -3.0910   10.9964 C   0  0  0  0  0  0  0  0  0  0  0  0
   -0.6301   -3.7220    9.7974 C   0  0  0  0  0  0  0  0  0  0  0  0
   -2.9610   -0.5182    9.3375 C   0  0  0  0  0  0  0  0  0  0  0  0
   -3.9822   -0.2726    8.6529 O   0  0  0  0  0  0  0  0  0  0  0  0
   -2.9922   -0.1245   10.6619 O   0  0  0  0  0  0  0  0  0  0  0  0
    2.6040    3.8399   11.8890 C   0  0  0  0  0  0  0  0  0  0  0  0
  1  2  1  0
  2  3  2  0
  3  4  1  0
  4  5  2  0
  5  6  1  0
  6  7  2  0
  6  8  1  0
  8  9  2  0
  8 10  1  0
 10 11  1  0
 10 12  1  0
 12 13  1  0
 13 14  1  0
 14 15  2  0
 15 16  1  0
 16 17  2  0
 17 18  1  0
 18 19  2  0
 17 20  1  0
 20 21  2  0
 21 22  1  0
 22 23  2  0
 23 24  1  0
 24 25  2  0
 12 26  1  0
 26 27  2  0
 26 28  1  0
 28 29  1  0
 29 30  1  0
 30 31  1  0
 31 32  2  0
 32 33  1  0
 33 34  1  0
 34 35  2  0
 35 36  1  0
 36 37  2  0
 37 38  1  0
 38 39  2  0
 29 40  1  0
 40 41  2  0
 40 42  1  0
  4 43  1  0
  7  2  1  0
 19 14  1  0
 25 20  1  0
 39 31  1  0
 39 34  1  0
M  END
$$$$
