
     RDKit          3D

 43 47  0  0  0  0  0  0  0  0999 V2000
   -1.6322    2.9933    9.9494 C   0  0  0  0  0  0  0  0  0  0  0  0
   -1.1689    2.2188   11.1518 C   0  0  0  0  0  0  0  0  0  0  0  0
   -1.8545    1.1035   11.5792 C   0  0  0  0  0  0  0  0  0  0  0  0
   -1.4507    0.3719   12.6858 C   0  0  0  0  0  0  0  0  0  0  0  0
   -0.3221    0.8104   13.3491 C   0  0  0  0  0  0  0  0  0  0  0  0
    0.4107    1.9135   12.9797 C   0  0  0  0  0  0  0  0  0  0  0  0
   -0.0499    2.6086   11.8539 C   0  0  0  0  0  0  0  0  0  0  0  0
    1.6052    2.3786   13.6899 C   0  0  0  0  0  0  0  0  0  0  0  0
    1.4299    2.7212   14.8774 O   0  0  0  0  0  0  0  0  0  0  0  0
    2.8605    2.4359   13.0848 N   0  0  0  0  0  0  0  0  0  0  0  0
    3.9163    3.3465   13.4998 C   0  0  0  0  0  0  0  0  0  0  0  0
    3.1865    1.5628   11.9431 C   0  0  0  0  0  0  0  0  0  0  0  0
    4.5430    1.8545   11.4087 C   0  0  0  0  0  0  0  0  0  0  0  0
    4.4952    2.5814   10.1221 C   0  0  0  0  0  0  0  0  0  0  0  0
    4.4059    3.9649   10.0682 C   0  0  0  0  0  0  0  0  0  0  0  0
    4.3858    4.6736    8.8851 C   0  0  0  0  0  0  0  0  0  0  0  0
    4.4561    4.0082    7.6868 C   0  0  0  0  0  0  0  0  0  0  0  0
    4.5456    2.6430    7.6967 C   0  0  0  0  0  0  0  0  0  0  0  0
    4.5656    1.9349    8.8846 C   0  0  0  0  0  0  0  0  0  0  0  0
    4.4371    4.7576    6.4351 C   0  0  0  0  0  0  0  0  0  0  0  0
    4.3301    4.1803    5.2084 C   0  0  0  0  0  0  0  0  0  0  0  0
    4.3171    4.9203    4.0307 C   0  0  0  0  0  0  0  0  0  0  0  0
    4.4169    6.3038    4.1002 C   0  0  0  0  0  0  0  0  0  0  0  0
    4.5248    6.9016    5.3172 C   0  0  0  0  0  0  0  0  0  0  0  0
    4.5354    6.1403    6.4799 C   0  0  0  0  0  0  0  0  0  0  0  0
    2.9451    0.1781   12.3992 C   0  0  0  0  0  0  0  0  0  0  0  0
    3.6027   -0.2923   13.4040 O   0  0  0  0  0  0  0  0  0  0  0  0
    2.0230   -0.7313   11.8307 N   0  0  0  0  0  0  0  0  0  0  0  0
    2.1611   -2.1670   12.0577 C   0  0  0  0  0  0  0  0  0  0  0  0
    1.2693   -2.9624   11.1774 C   0  0  0  0  0  0  0  0  0  0  0  0
    1.4810   -2.5970    9.7631 C   0  0  0  0  0  0  0  0  0  0  0  0
    2.6673   -2.3542    9.0758 C   0  0  0  0  0  0  0  0  0  0  0  0
    2.3870   -2.0619    7.7950 N   0  0  0  0  0  0  0  0  0  0  0  0
    1.0569   -2.1020    7.6065 C   0  0  0  0  0  0  0  0  0  0  0  0
    0.2974   -1.8832    6.4910 C   0  0  0  0  0  0  0  0  0  0  0  0
   -1.0758   -1.9906    6.5594 C   0  0  0  0  0  0  0  0  0  0  0  0
   -1.6399   -2.3195    7.7675 C   0  0  0  0  0  0  0  0  0  0  0  0
   -0.8802   -2.5405    8.8918 C   0  0  0  0  0  0  0  0  0  0  0  0
    0.4800   -2.4374    8.8381 C   0  0  0  0  0  0  0  0  0  0  0  0
    1.9254   -2.5417   13.4760 C   0  0  0  0  0  0  0  0  0  0  0  0
    1.9882   -1.7147   14.4161 O   0  0  0  0  0  0  0  0  0  0  0  0
    1.6210   -3.8461   13.8163 O   0  0  0  0  0  0  0  0  0  0  0  0
   -2.2184   -0.8351   13.1257 C   0  0  0  0  0  0  0  0  0  0  0  0
  1  2  1  0
  2  3  2  0
  3  4  1  0
  4  5  2  0
  5  6  1  0
  6  7  2  0
  6  8  1  0
  8  9  2  0
  8 10  1  0
 10 11  1  0
 10 12  1  0
 12 13  1  0
 13 14  1  0
 14 15  2  0
 15 16  1  0
 16 17  2  0
 17 18  1  0
 18 19  2  0
 17 20  1  0
 20 21  2  0
 21 22  1  0
 22 23  2  0
 23 24  1  0
 24 25  2  0
 12 26  1  0
 26 27  2  0
 26 28  1  0
 28 29  1  0
 29 30  1  0
 30 31  1  0
 31 32  2  0
 32 33  1  0
 33 34  1  0
 34 35  2  0
 35 36  1  0
 36 37  2  0
 37 38  1  0
 38 39  2  0
 29 40  1  0
 40 41  2  0
 40 42  1  0
  4 43  1  0
  7  2  1  0
 19 14  1  0
 25 20  1  0
 39 31  1  0
 39 34  1  0
M  END
$$$$
