
     RDKit          3D

 43 47  0  0  0  0  0  0  0  0999 V2000
   -3.6983   -2.1869    6.2307 C   0  0  0  0  0  0  0  0  0  0  0  0
   -2.3023   -2.5238    6.6758 C   0  0  0  0  0  0  0  0  0  0  0  0
   -1.6216   -3.5841    6.1200 C   0  0  0  0  0  0  0  0  0  0  0  0
   -0.3345   -3.9182    6.5131 C   0  0  0  0  0  0  0  0  0  0  0  0
    0.2438   -3.1375    7.4939 C   0  0  0  0  0  0  0  0  0  0  0  0
   -0.3754   -2.0659    8.0925 C   0  0  0  0  0  0  0  0  0  0  0  0
   -1.6741   -1.7810    7.6508 C   0  0  0  0  0  0  0  0  0  0  0  0
    0.2401   -1.2430    9.1373 C   0  0  0  0  0  0  0  0  0  0  0  0
    0.6655   -1.8626   10.1340 O   0  0  0  0  0  0  0  0  0  0  0  0
    0.3485    0.1434    9.0308 N   0  0  0  0  0  0  0  0  0  0  0  0
   -0.1813    0.9115    7.9147 C   0  0  0  0  0  0  0  0  0  0  0  0
    1.0458    0.9259   10.0668 C   0  0  0  0  0  0  0  0  0  0  0  0
    1.2407    2.3367    9.6399 C   0  0  0  0  0  0  0  0  0  0  0  0
    2.2151    3.0516   10.4918 C   0  0  0  0  0  0  0  0  0  0  0  0
    2.4827    4.4020   10.3195 C   0  0  0  0  0  0  0  0  0  0  0  0
    3.3658    5.1029   11.1139 C   0  0  0  0  0  0  0  0  0  0  0  0
    4.0275    4.4633   12.1320 C   0  0  0  0  0  0  0  0  0  0  0  0
    3.7911    3.1311   12.3354 C   0  0  0  0  0  0  0  0  0  0  0  0
    2.9049    2.4307   11.5373 C   0  0  0  0  0  0  0  0  0  0  0  0
    4.9602    5.2048   12.9741 C   0  0  0  0  0  0  0  0  0  0  0  0
    5.7704    4.6249   13.8997 C   0  0  0  0  0  0  0  0  0  0  0  0
    6.6487    5.3579   14.6908 C   0  0  0  0  0  0  0  0  0  0  0  0
    6.7078    6.7368   14.5366 C   0  0  0  0  0  0  0  0  0  0  0  0
    5.9059    7.3372   13.6165 C   0  0  0  0  0  0  0  0  0  0  0  0
    5.0364    6.5830   12.8376 C   0  0  0  0  0  0  0  0  0  0  0  0
    0.2909    0.7183   11.3201 C   0  0  0  0  0  0  0  0  0  0  0  0
   -0.0487    1.7314   12.0421 O   0  0  0  0  0  0  0  0  0  0  0  0
   -0.1255   -0.5304   11.8379 N   0  0  0  0  0  0  0  0  0  0  0  0
   -1.2234   -0.6067   12.7973 C   0  0  0  0  0  0  0  0  0  0  0  0
   -1.0334    0.3191   13.9418 C   0  0  0  0  0  0  0  0  0  0  0  0
    0.3596    0.2610   14.4265 C   0  0  0  0  0  0  0  0  0  0  0  0
    1.0685   -0.8082   14.9678 C   0  0  0  0  0  0  0  0  0  0  0  0
    2.3167   -0.4095   15.2636 N   0  0  0  0  0  0  0  0  0  0  0  0
    2.4627    0.8863   14.9380 C   0  0  0  0  0  0  0  0  0  0  0  0
    3.5349    1.7276   15.0455 C   0  0  0  0  0  0  0  0  0  0  0  0
    3.4278    3.0383   14.6300 C   0  0  0  0  0  0  0  0  0  0  0  0
    2.2262    3.4575   14.1140 C   0  0  0  0  0  0  0  0  0  0  0  0
    1.1454    2.6151   14.0038 C   0  0  0  0  0  0  0  0  0  0  0  0
    1.2377    1.3154   14.4114 C   0  0  0  0  0  0  0  0  0  0  0  0
   -1.4394   -1.9870   13.3028 C   0  0  0  0  0  0  0  0  0  0  0  0
   -1.3850   -2.2804   14.5205 O   0  0  0  0  0  0  0  0  0  0  0  0
   -1.7149   -3.0202   12.4272 O   0  0  0  0  0  0  0  0  0  0  0  0
    0.3781   -5.0777    5.8904 C   0  0  0  0  0  0  0  0  0  0  0  0
  1  2  1  0
  2  3  2  0
  3  4  1  0
  4  5  2  0
  5  6  1  0
  6  7  2  0
  6  8  1  0
  8  9  2  0
  8 10  1  0
 10 11  1  0
 10 12  1  0
 12 13  1  0
 13 14  1  0
 14 15  2  0
 15 16  1  0
 16 17  2  0
 17 18  1  0
 18 19  2  0
 17 20  1  0
 20 21  2  0
 21 22  1  0
 22 23  2  0
 23 24  1  0
 24 25  2  0
 12 26  1  0
 26 27  2  0
 26 28  1  0
 28 29  1  0
 29 30  1  0
 30 31  1  0
 31 32  2  0
 32 33  1  0
 33 34  1  0
 34 35  2  0
 35 36  1  0
 36 37  2  0
 37 38  1  0
 38 39  2  0
 29 40  1  0
 40 41  2  0
 40 42  1  0
  4 43  1  0
  7  2  1  0
 19 14  1  0
 25 20  1  0
 39 31  1  0
 39 34  1  0
M  END
$$$$
