
     RDKit          3D

 43 47  0  0  0  0  0  0  0  0999 V2000
    2.5592    6.7304   13.1219 C   0  0  0  0  0  0  0  0  0  0  0  0
    2.2766    5.2853   13.4254 C   0  0  0  0  0  0  0  0  0  0  0  0
    0.9821    4.8260   13.5261 C   0  0  0  0  0  0  0  0  0  0  0  0
    0.6929    3.4993   13.8070 C   0  0  0  0  0  0  0  0  0  0  0  0
    1.7652    2.6479   13.9834 C   0  0  0  0  0  0  0  0  0  0  0  0
    3.0813    3.0361   13.8979 C   0  0  0  0  0  0  0  0  0  0  0  0
    3.3057    4.3891   13.6117 C   0  0  0  0  0  0  0  0  0  0  0  0
    4.2168    2.1301   14.0912 C   0  0  0  0  0  0  0  0  0  0  0  0
    4.8343    2.2581   15.1685 O   0  0  0  0  0  0  0  0  0  0  0  0
    4.5881    1.1821   13.1380 N   0  0  0  0  0  0  0  0  0  0  0  0
    5.6659    0.2238   13.3292 C   0  0  0  0  0  0  0  0  0  0  0  0
    3.8994    1.1128   11.8369 C   0  0  0  0  0  0  0  0  0  0  0  0
    4.8653    1.1828   10.7088 C   0  0  0  0  0  0  0  0  0  0  0  0
    4.2015    1.4633    9.4178 C   0  0  0  0  0  0  0  0  0  0  0  0
    2.8302    1.6545    9.3285 C   0  0  0  0  0  0  0  0  0  0  0  0
    2.1848    1.9435    8.1443 C   0  0  0  0  0  0  0  0  0  0  0  0
    2.9047    2.0539    6.9810 C   0  0  0  0  0  0  0  0  0  0  0  0
    4.2601    1.8728    7.0266 C   0  0  0  0  0  0  0  0  0  0  0  0
    4.9047    1.5833    8.2155 C   0  0  0  0  0  0  0  0  0  0  0  0
    2.2227    2.3617    5.7285 C   0  0  0  0  0  0  0  0  0  0  0  0
    0.8850    2.5863    5.6298 C   0  0  0  0  0  0  0  0  0  0  0  0
    0.2611    2.8754    4.4208 C   0  0  0  0  0  0  0  0  0  0  0  0
    1.0260    2.9395    3.2634 C   0  0  0  0  0  0  0  0  0  0  0  0
    2.3658    2.7182    3.3397 C   0  0  0  0  0  0  0  0  0  0  0  0
    2.9663    2.4311    4.5597 C   0  0  0  0  0  0  0  0  0  0  0  0
    3.0374   -0.0863   11.8887 C   0  0  0  0  0  0  0  0  0  0  0  0
    3.5373   -1.2238   12.2343 O   0  0  0  0  0  0  0  0  0  0  0  0
    1.6550   -0.1250   11.5915 N   0  0  0  0  0  0  0  0  0  0  0  0
    0.8837   -1.3457   11.8074 C   0  0  0  0  0  0  0  0  0  0  0  0
   -0.0283   -1.6407   10.6742 C   0  0  0  0  0  0  0  0  0  0  0  0
   -0.0317   -0.5228    9.7104 C   0  0  0  0  0  0  0  0  0  0  0  0
   -0.7319    0.6802    9.7469 C   0  0  0  0  0  0  0  0  0  0  0  0
   -0.4231    1.4073    8.6605 N   0  0  0  0  0  0  0  0  0  0  0  0
    0.4575    0.7306    7.9033 C   0  0  0  0  0  0  0  0  0  0  0  0
    1.0623    1.0511    6.7199 C   0  0  0  0  0  0  0  0  0  0  0  0
    1.9469    0.1688    6.1361 C   0  0  0  0  0  0  0  0  0  0  0  0
    2.1922   -1.0208    6.7768 C   0  0  0  0  0  0  0  0  0  0  0  0
    1.5864   -1.3474    7.9670 C   0  0  0  0  0  0  0  0  0  0  0  0
    0.7087   -0.4832    8.5557 C   0  0  0  0  0  0  0  0  0  0  0  0
    0.1092   -1.3099   13.0748 C   0  0  0  0  0  0  0  0  0  0  0  0
   -0.3373   -2.3431   13.6270 O   0  0  0  0  0  0  0  0  0  0  0  0
   -0.1519   -0.1076   13.7044 O   0  0  0  0  0  0  0  0  0  0  0  0
   -0.7250    3.0317   13.9112 C   0  0  0  0  0  0  0  0  0  0  0  0
  1  2  1  0
  2  3  2  0
  3  4  1  0
  4  5  2  0
  5  6  1  0
  6  7  2  0
  6  8  1  0
  8  9  2  0
  8 10  1  0
 10 11  1  0
 10 12  1  0
 12 13  1  0
 13 14  1  0
 14 15  2  0
 15 16  1  0
 16 17  2  0
 17 18  1  0
 18 19  2  0
 17 20  1  0
 20 21  2  0
 21 22  1  0
 22 23  2  0
 23 24  1  0
 24 25  2  0
 12 26  1  0
 26 27  2  0
 26 28  1  0
 28 29  1  0
 29 30  1  0
 30 31  1  0
 31 32  2  0
 32 33  1  0
 33 34  1  0
 34 35  2  0
 35 36  1  0
 36 37  2  0
 37 38  1  0
 38 39  2  0
 29 40  1  0
 40 41  2  0
 40 42  1  0
  4 43  1  0
  7  2  1  0
 19 14  1  0
 25 20  1  0
 39 31  1  0
 39 34  1  0
M  END
$$$$
