
     RDKit          3D

 43 47  0  0  0  0  0  0  0  0999 V2000
    5.8855    1.5328   17.8725 C   0  0  0  0  0  0  0  0  0  0  0  0
    4.9021    0.5045   17.3869 C   0  0  0  0  0  0  0  0  0  0  0  0
    4.7505   -0.6939   18.0483 C   0  0  0  0  0  0  0  0  0  0  0  0
    3.8528   -1.6605   17.6212 C   0  0  0  0  0  0  0  0  0  0  0  0
    3.1088   -1.3709   16.4949 C   0  0  0  0  0  0  0  0  0  0  0  0
    3.2075   -0.1975   15.7853 C   0  0  0  0  0  0  0  0  0  0  0  0
    4.1325    0.7372   16.2686 C   0  0  0  0  0  0  0  0  0  0  0  0
    2.4196    0.1037   14.5869 C   0  0  0  0  0  0  0  0  0  0  0  0
    1.2146    0.3645   14.7827 O   0  0  0  0  0  0  0  0  0  0  0  0
    2.9741    0.1026   13.3072 N   0  0  0  0  0  0  0  0  0  0  0  0
    4.3417   -0.3021   13.0200 C   0  0  0  0  0  0  0  0  0  0  0  0
    2.1846    0.5450   12.1441 C   0  0  0  0  0  0  0  0  0  0  0  0
    2.9724    1.4524   11.2686 C   0  0  0  0  0  0  0  0  0  0  0  0
    3.1720    2.7854   11.8763 C   0  0  0  0  0  0  0  0  0  0  0  0
    4.3659    3.4787   11.7394 C   0  0  0  0  0  0  0  0  0  0  0  0
    4.5741    4.7340   12.2715 C   0  0  0  0  0  0  0  0  0  0  0  0
    3.5725    5.3543   12.9755 C   0  0  0  0  0  0  0  0  0  0  0  0
    2.3791    4.7041   13.1329 C   0  0  0  0  0  0  0  0  0  0  0  0
    2.1730    3.4453   12.5980 C   0  0  0  0  0  0  0  0  0  0  0  0
    3.7915    6.6831   13.5368 C   0  0  0  0  0  0  0  0  0  0  0  0
    2.7915    7.4959   13.9714 C   0  0  0  0  0  0  0  0  0  0  0  0
    3.0300    8.7601   14.5001 C   0  0  0  0  0  0  0  0  0  0  0  0
    4.3375    9.2191   14.5920 C   0  0  0  0  0  0  0  0  0  0  0  0
    5.3528    8.4221   14.1630 C   0  0  0  0  0  0  0  0  0  0  0  0
    5.0891    7.1625   13.6384 C   0  0  0  0  0  0  0  0  0  0  0  0
    1.6570   -0.6820   11.5115 C   0  0  0  0  0  0  0  0  0  0  0  0
    2.3709   -1.7559   11.4959 O   0  0  0  0  0  0  0  0  0  0  0  0
    0.3908   -0.8165   10.8957 N   0  0  0  0  0  0  0  0  0  0  0  0
   -0.0271   -2.0964   10.3309 C   0  0  0  0  0  0  0  0  0  0  0  0
   -0.5848   -1.9506    8.9632 C   0  0  0  0  0  0  0  0  0  0  0  0
    0.3436   -1.1875    8.1062 C   0  0  0  0  0  0  0  0  0  0  0  0
    1.6208   -1.5202    7.6628 C   0  0  0  0  0  0  0  0  0  0  0  0
    2.0960   -0.5280    6.8919 N   0  0  0  0  0  0  0  0  0  0  0  0
    1.1801    0.4520    6.8070 C   0  0  0  0  0  0  0  0  0  0  0  0
    1.1984    1.6481    6.1453 C   0  0  0  0  0  0  0  0  0  0  0  0
    0.1100    2.4921    6.2157 C   0  0  0  0  0  0  0  0  0  0  0  0
   -0.9717    2.0925    6.9613 C   0  0  0  0  0  0  0  0  0  0  0  0
   -0.9947    0.8906    7.6283 C   0  0  0  0  0  0  0  0  0  0  0  0
    0.0760    0.0457    7.5671 C   0  0  0  0  0  0  0  0  0  0  0  0
   -1.0057   -2.8049   11.1958 C   0  0  0  0  0  0  0  0  0  0  0  0
   -1.2692   -2.4373   12.3651 O   0  0  0  0  0  0  0  0  0  0  0  0
   -1.6760   -3.9201   10.7299 O   0  0  0  0  0  0  0  0  0  0  0  0
    3.7125   -2.9537   18.3614 C   0  0  0  0  0  0  0  0  0  0  0  0
  1  2  1  0
  2  3  2  0
  3  4  1  0
  4  5  2  0
  5  6  1  0
  6  7  2  0
  6  8  1  0
  8  9  2  0
  8 10  1  0
 10 11  1  0
 10 12  1  0
 12 13  1  0
 13 14  1  0
 14 15  2  0
 15 16  1  0
 16 17  2  0
 17 18  1  0
 18 19  2  0
 17 20  1  0
 20 21  2  0
 21 22  1  0
 22 23  2  0
 23 24  1  0
 24 25  2  0
 12 26  1  0
 26 27  2  0
 26 28  1  0
 28 29  1  0
 29 30  1  0
 30 31  1  0
 31 32  2  0
 32 33  1  0
 33 34  1  0
 34 35  2  0
 35 36  1  0
 36 37  2  0
 37 38  1  0
 38 39  2  0
 29 40  1  0
 40 41  2  0
 40 42  1  0
  4 43  1  0
  7  2  1  0
 19 14  1  0
 25 20  1  0
 39 31  1  0
 39 34  1  0
M  END
$$$$
