
     RDKit          3D

 43 47  0  0  0  0  0  0  0  0999 V2000
    5.4779    3.8073    7.1122 C   0  0  0  0  0  0  0  0  0  0  0  0
    4.5680    2.6156    7.2230 C   0  0  0  0  0  0  0  0  0  0  0  0
    4.0113    2.0466    6.0992 C   0  0  0  0  0  0  0  0  0  0  0  0
    3.1675    0.9487    6.1726 C   0  0  0  0  0  0  0  0  0  0  0  0
    2.9048    0.4432    7.4301 C   0  0  0  0  0  0  0  0  0  0  0  0
    3.4243    0.9595    8.5937 C   0  0  0  0  0  0  0  0  0  0  0  0
    4.2692    2.0679    8.4509 C   0  0  0  0  0  0  0  0  0  0  0  0
    3.1386    0.4230    9.9271 C   0  0  0  0  0  0  0  0  0  0  0  0
    3.6583   -0.6813   10.1892 O   0  0  0  0  0  0  0  0  0  0  0  0
    2.3398    1.0981   10.8498 N   0  0  0  0  0  0  0  0  0  0  0  0
    2.0602    2.5243   10.7848 C   0  0  0  0  0  0  0  0  0  0  0  0
    1.7341    0.3828   11.9871 C   0  0  0  0  0  0  0  0  0  0  0  0
    1.1962   -0.9392   11.5705 C   0  0  0  0  0  0  0  0  0  0  0  0
   -0.0848   -0.8198   10.8419 C   0  0  0  0  0  0  0  0  0  0  0  0
   -0.8534    0.3338   10.9008 C   0  0  0  0  0  0  0  0  0  0  0  0
   -2.0388    0.4858   10.2124 C   0  0  0  0  0  0  0  0  0  0  0  0
   -2.5080   -0.5338    9.4227 C   0  0  0  0  0  0  0  0  0  0  0  0
   -1.7791   -1.6885    9.3374 C   0  0  0  0  0  0  0  0  0  0  0  0
   -0.5905   -1.8383   10.0287 C   0  0  0  0  0  0  0  0  0  0  0  0
   -3.7609   -0.3726    8.6926 C   0  0  0  0  0  0  0  0  0  0  0  0
   -4.6942    0.5711    8.9891 C   0  0  0  0  0  0  0  0  0  0  0  0
   -5.8818    0.7000    8.2767 C   0  0  0  0  0  0  0  0  0  0  0  0
   -6.1333   -0.1644    7.2191 C   0  0  0  0  0  0  0  0  0  0  0  0
   -5.2131   -1.1156    6.9057 C   0  0  0  0  0  0  0  0  0  0  0  0
   -4.0336   -1.2245    7.6326 C   0  0  0  0  0  0  0  0  0  0  0  0
    2.7536    0.3686   13.0568 C   0  0  0  0  0  0  0  0  0  0  0  0
    2.5833   -0.3730   14.0980 O   0  0  0  0  0  0  0  0  0  0  0  0
    3.9574    1.1111   13.0624 N   0  0  0  0  0  0  0  0  0  0  0  0
    4.6201    1.4403   14.3211 C   0  0  0  0  0  0  0  0  0  0  0  0
    5.6414    2.5044   14.1556 C   0  0  0  0  0  0  0  0  0  0  0  0
    5.0780    3.6494   13.4139 C   0  0  0  0  0  0  0  0  0  0  0  0
    5.2309    4.0039   12.0761 C   0  0  0  0  0  0  0  0  0  0  0  0
    4.5277    5.1215   11.8293 N   0  0  0  0  0  0  0  0  0  0  0  0
    3.9127    5.5223   12.9552 C   0  0  0  0  0  0  0  0  0  0  0  0
    3.0940    6.5883   13.2047 C   0  0  0  0  0  0  0  0  0  0  0  0
    2.5791    6.7815   14.4694 C   0  0  0  0  0  0  0  0  0  0  0  0
    2.9138    5.8795   15.4492 C   0  0  0  0  0  0  0  0  0  0  0  0
    3.7366    4.8060   15.2030 C   0  0  0  0  0  0  0  0  0  0  0  0
    4.2533    4.6030   13.9557 C   0  0  0  0  0  0  0  0  0  0  0  0
    5.2376    0.2518   14.9641 C   0  0  0  0  0  0  0  0  0  0  0  0
    5.4602    0.1853   16.1961 O   0  0  0  0  0  0  0  0  0  0  0  0
    5.5963   -0.8484   14.2085 O   0  0  0  0  0  0  0  0  0  0  0  0
    2.5772    0.3541    4.9325 C   0  0  0  0  0  0  0  0  0  0  0  0
  1  2  1  0
  2  3  2  0
  3  4  1  0
  4  5  2  0
  5  6  1  0
  6  7  2  0
  6  8  1  0
  8  9  2  0
  8 10  1  0
 10 11  1  0
 10 12  1  0
 12 13  1  0
 13 14  1  0
 14 15  2  0
 15 16  1  0
 16 17  2  0
 17 18  1  0
 18 19  2  0
 17 20  1  0
 20 21  2  0
 21 22  1  0
 22 23  2  0
 23 24  1  0
 24 25  2  0
 12 26  1  0
 26 27  2  0
 26 28  1  0
 28 29  1  0
 29 30  1  0
 30 31  1  0
 31 32  2  0
 32 33  1  0
 33 34  1  0
 34 35  2  0
 35 36  1  0
 36 37  2  0
 37 38  1  0
 38 39  2  0
 29 40  1  0
 40 41  2  0
 40 42  1  0
  4 43  1  0
  7  2  1  0
 19 14  1  0
 25 20  1  0
 39 31  1  0
 39 34  1  0
M  END
$$$$
