
     RDKit          3D

 43 47  0  0  0  0  0  0  0  0999 V2000
   -2.7230   -1.9673   12.5357 C   0  0  0  0  0  0  0  0  0  0  0  0
   -2.1446   -0.5947   12.7399 C   0  0  0  0  0  0  0  0  0  0  0  0
   -2.8477    0.5294   12.3672 C   0  0  0  0  0  0  0  0  0  0  0  0
   -2.3375    1.8068   12.5422 C   0  0  0  0  0  0  0  0  0  0  0  0
   -1.0838    1.9084   13.1110 C   0  0  0  0  0  0  0  0  0  0  0  0
   -0.3259    0.8316   13.5063 C   0  0  0  0  0  0  0  0  0  0  0  0
   -0.8981   -0.4308   13.3023 C   0  0  0  0  0  0  0  0  0  0  0  0
    1.0071    0.9437   14.1049 C   0  0  0  0  0  0  0  0  0  0  0  0
    1.0390    0.9796   15.3523 O   0  0  0  0  0  0  0  0  0  0  0  0
    2.1694    1.0051   13.3366 N   0  0  0  0  0  0  0  0  0  0  0  0
    3.5068    0.8229   13.8794 C   0  0  0  0  0  0  0  0  0  0  0  0
    2.1029    1.2871   11.8917 C   0  0  0  0  0  0  0  0  0  0  0  0
    3.1270    2.2863   11.4875 C   0  0  0  0  0  0  0  0  0  0  0  0
    3.0664    3.5154   12.3070 C   0  0  0  0  0  0  0  0  0  0  0  0
    2.1256    4.5067   12.0679 C   0  0  0  0  0  0  0  0  0  0  0  0
    2.0263    5.6517   12.8303 C   0  0  0  0  0  0  0  0  0  0  0  0
    2.8843    5.8503   13.8830 C   0  0  0  0  0  0  0  0  0  0  0  0
    3.8268    4.8958   14.1524 C   0  0  0  0  0  0  0  0  0  0  0  0
    3.9239    3.7484   13.3863 C   0  0  0  0  0  0  0  0  0  0  0  0
    2.7783    7.0604   14.6911 C   0  0  0  0  0  0  0  0  0  0  0  0
    1.6490    7.8125   14.7842 C   0  0  0  0  0  0  0  0  0  0  0  0
    1.5777    8.9639   15.5612 C   0  0  0  0  0  0  0  0  0  0  0  0
    2.6987    9.3694   16.2738 C   0  0  0  0  0  0  0  0  0  0  0  0
    3.8386    8.6316   16.1948 C   0  0  0  0  0  0  0  0  0  0  0  0
    3.8851    7.4846   15.4114 C   0  0  0  0  0  0  0  0  0  0  0  0
    2.1610   -0.0235   11.2114 C   0  0  0  0  0  0  0  0  0  0  0  0
    2.7172   -1.0286   11.7976 O   0  0  0  0  0  0  0  0  0  0  0  0
    1.6436   -0.3127    9.9272 N   0  0  0  0  0  0  0  0  0  0  0  0
    1.7577   -1.6562    9.3668 C   0  0  0  0  0  0  0  0  0  0  0  0
    1.3505   -1.7053    7.9404 C   0  0  0  0  0  0  0  0  0  0  0  0
    2.1065   -0.7113    7.1536 C   0  0  0  0  0  0  0  0  0  0  0  0
    3.2009    0.0671    7.5211 C   0  0  0  0  0  0  0  0  0  0  0  0
    3.5736    0.8297    6.4799 N   0  0  0  0  0  0  0  0  0  0  0  0
    2.7661    0.5857    5.4335 C   0  0  0  0  0  0  0  0  0  0  0  0
    2.7471    1.1052    4.1691 C   0  0  0  0  0  0  0  0  0  0  0  0
    1.7995    0.6789    3.2623 C   0  0  0  0  0  0  0  0  0  0  0  0
    0.8937   -0.2692    3.6703 C   0  0  0  0  0  0  0  0  0  0  0  0
    0.9090   -0.7945    4.9407 C   0  0  0  0  0  0  0  0  0  0  0  0
    1.8414   -0.3813    5.8483 C   0  0  0  0  0  0  0  0  0  0  0  0
    0.9840   -2.6607   10.1413 C   0  0  0  0  0  0  0  0  0  0  0  0
   -0.2507   -2.5640   10.3358 O   0  0  0  0  0  0  0  0  0  0  0  0
    1.6137   -3.7634   10.6868 O   0  0  0  0  0  0  0  0  0  0  0  0
   -3.1262    3.0085   12.1253 C   0  0  0  0  0  0  0  0  0  0  0  0
  1  2  1  0
  2  3  2  0
  3  4  1  0
  4  5  2  0
  5  6  1  0
  6  7  2  0
  6  8  1  0
  8  9  2  0
  8 10  1  0
 10 11  1  0
 10 12  1  0
 12 13  1  0
 13 14  1  0
 14 15  2  0
 15 16  1  0
 16 17  2  0
 17 18  1  0
 18 19  2  0
 17 20  1  0
 20 21  2  0
 21 22  1  0
 22 23  2  0
 23 24  1  0
 24 25  2  0
 12 26  1  0
 26 27  2  0
 26 28  1  0
 28 29  1  0
 29 30  1  0
 30 31  1  0
 31 32  2  0
 32 33  1  0
 33 34  1  0
 34 35  2  0
 35 36  1  0
 36 37  2  0
 37 38  1  0
 38 39  2  0
 29 40  1  0
 40 41  2  0
 40 42  1  0
  4 43  1  0
  7  2  1  0
 19 14  1  0
 25 20  1  0
 39 31  1  0
 39 34  1  0
M  END
$$$$
