
     RDKit          3D

 43 47  0  0  0  0  0  0  0  0999 V2000
    2.9969    5.8529   14.7470 C   0  0  0  0  0  0  0  0  0  0  0  0
    2.1136    4.6515   14.9387 C   0  0  0  0  0  0  0  0  0  0  0  0
    0.8348    4.7879   15.4314 C   0  0  0  0  0  0  0  0  0  0  0  0
   -0.0003    3.6971   15.6200 C   0  0  0  0  0  0  0  0  0  0  0  0
    0.5062    2.4558   15.2906 C   0  0  0  0  0  0  0  0  0  0  0  0
    1.7711    2.2449   14.7949 C   0  0  0  0  0  0  0  0  0  0  0  0
    2.5643    3.3877   14.6279 C   0  0  0  0  0  0  0  0  0  0  0  0
    2.3068    0.9248   14.4516 C   0  0  0  0  0  0  0  0  0  0  0  0
    3.1856    0.4809   15.2189 O   0  0  0  0  0  0  0  0  0  0  0  0
    1.8665    0.2044   13.3414 N   0  0  0  0  0  0  0  0  0  0  0  0
    1.4055   -1.1740   13.4041 C   0  0  0  0  0  0  0  0  0  0  0  0
    1.8644    0.8150   12.0001 C   0  0  0  0  0  0  0  0  0  0  0  0
    0.8042    1.8502   11.8783 C   0  0  0  0  0  0  0  0  0  0  0  0
   -0.4806    1.2860   11.4126 C   0  0  0  0  0  0  0  0  0  0  0  0
   -0.6361    0.7883   10.1269 C   0  0  0  0  0  0  0  0  0  0  0  0
   -1.8130    0.2320    9.6709 C   0  0  0  0  0  0  0  0  0  0  0  0
   -2.9007    0.1521   10.5039 C   0  0  0  0  0  0  0  0  0  0  0  0
   -2.7884    0.6316   11.7804 C   0  0  0  0  0  0  0  0  0  0  0  0
   -1.6069    1.1887   12.2351 C   0  0  0  0  0  0  0  0  0  0  0  0
   -4.1452   -0.4382   10.0227 C   0  0  0  0  0  0  0  0  0  0  0  0
   -5.1585   -0.8376   10.8371 C   0  0  0  0  0  0  0  0  0  0  0  0
   -6.3337   -1.4001   10.3500 C   0  0  0  0  0  0  0  0  0  0  0  0
   -6.4876   -1.5643    8.9796 C   0  0  0  0  0  0  0  0  0  0  0  0
   -5.4862   -1.1715    8.1471 C   0  0  0  0  0  0  0  0  0  0  0  0
   -4.3212   -0.6119    8.6580 C   0  0  0  0  0  0  0  0  0  0  0  0
    3.2499    1.2622   11.7471 C   0  0  0  0  0  0  0  0  0  0  0  0
    3.8847    1.9317   12.6483 O   0  0  0  0  0  0  0  0  0  0  0  0
    3.9954    1.0204   10.5697 N   0  0  0  0  0  0  0  0  0  0  0  0
    5.2792    1.6821   10.3555 C   0  0  0  0  0  0  0  0  0  0  0  0
    6.1388    0.9419    9.3984 C   0  0  0  0  0  0  0  0  0  0  0  0
    5.8565    1.3696    8.0141 C   0  0  0  0  0  0  0  0  0  0  0  0
    4.9741    0.8327    7.0805 C   0  0  0  0  0  0  0  0  0  0  0  0
    5.0366    1.5498    5.9463 N   0  0  0  0  0  0  0  0  0  0  0  0
    5.9289    2.5442    6.0930 C   0  0  0  0  0  0  0  0  0  0  0  0
    6.3347    3.5255    5.2320 C   0  0  0  0  0  0  0  0  0  0  0  0
    7.2810    4.4457    5.6316 C   0  0  0  0  0  0  0  0  0  0  0  0
    7.7898    4.3406    6.9028 C   0  0  0  0  0  0  0  0  0  0  0  0
    7.3846    3.3555    7.7720 C   0  0  0  0  0  0  0  0  0  0  0  0
    6.4488    2.4382    7.3893 C   0  0  0  0  0  0  0  0  0  0  0  0
    6.0209    1.9040   11.6236 C   0  0  0  0  0  0  0  0  0  0  0  0
    5.6556    1.4143   12.7184 O   0  0  0  0  0  0  0  0  0  0  0  0
    7.1670    2.6760   11.6407 O   0  0  0  0  0  0  0  0  0  0  0  0
   -1.3848    3.8785   16.1587 C   0  0  0  0  0  0  0  0  0  0  0  0
  1  2  1  0
  2  3  2  0
  3  4  1  0
  4  5  2  0
  5  6  1  0
  6  7  2  0
  6  8  1  0
  8  9  2  0
  8 10  1  0
 10 11  1  0
 10 12  1  0
 12 13  1  0
 13 14  1  0
 14 15  2  0
 15 16  1  0
 16 17  2  0
 17 18  1  0
 18 19  2  0
 17 20  1  0
 20 21  2  0
 21 22  1  0
 22 23  2  0
 23 24  1  0
 24 25  2  0
 12 26  1  0
 26 27  2  0
 26 28  1  0
 28 29  1  0
 29 30  1  0
 30 31  1  0
 31 32  2  0
 32 33  1  0
 33 34  1  0
 34 35  2  0
 35 36  1  0
 36 37  2  0
 37 38  1  0
 38 39  2  0
 29 40  1  0
 40 41  2  0
 40 42  1  0
  4 43  1  0
  7  2  1  0
 19 14  1  0
 25 20  1  0
 39 31  1  0
 39 34  1  0
M  END
$$$$
