
     RDKit          3D

 43 47  0  0  0  0  0  0  0  0999 V2000
    7.0190    5.4989    9.2990 C   0  0  0  0  0  0  0  0  0  0  0  0
    6.7896    4.0525    9.6386 C   0  0  0  0  0  0  0  0  0  0  0  0
    7.6433    3.0757    9.1763 C   0  0  0  0  0  0  0  0  0  0  0  0
    7.4543    1.7343    9.4725 C   0  0  0  0  0  0  0  0  0  0  0  0
    6.3651    1.4133   10.2576 C   0  0  0  0  0  0  0  0  0  0  0  0
    5.4725    2.3341   10.7531 C   0  0  0  0  0  0  0  0  0  0  0  0
    5.7195    3.6718   10.4177 C   0  0  0  0  0  0  0  0  0  0  0  0
    4.3143    1.9885   11.5818 C   0  0  0  0  0  0  0  0  0  0  0  0
    4.5710    1.6417   12.7532 O   0  0  0  0  0  0  0  0  0  0  0  0
    3.0066    2.0429   11.0999 N   0  0  0  0  0  0  0  0  0  0  0  0
    2.6673    2.0604    9.6854 C   0  0  0  0  0  0  0  0  0  0  0  0
    1.8641    2.1082   12.0285 C   0  0  0  0  0  0  0  0  0  0  0  0
    1.1548    3.4106   11.9232 C   0  0  0  0  0  0  0  0  0  0  0  0
    1.7452    4.4439   12.8006 C   0  0  0  0  0  0  0  0  0  0  0  0
    2.6803    4.1267   13.7752 C   0  0  0  0  0  0  0  0  0  0  0  0
    3.2686    5.0703   14.5912 C   0  0  0  0  0  0  0  0  0  0  0  0
    2.9347    6.3948   14.4582 C   0  0  0  0  0  0  0  0  0  0  0  0
    2.0162    6.7494   13.5081 C   0  0  0  0  0  0  0  0  0  0  0  0
    1.4280    5.8011   12.6910 C   0  0  0  0  0  0  0  0  0  0  0  0
    3.5583    7.3936   15.3197 C   0  0  0  0  0  0  0  0  0  0  0  0
    4.7411    7.2056   15.9640 C   0  0  0  0  0  0  0  0  0  0  0  0
    5.3112    8.1756   16.7818 C   0  0  0  0  0  0  0  0  0  0  0  0
    4.6540    9.3870   16.9533 C   0  0  0  0  0  0  0  0  0  0  0  0
    3.4696    9.5958   16.3180 C   0  0  0  0  0  0  0  0  0  0  0  0
    2.9202    8.6109   15.5057 C   0  0  0  0  0  0  0  0  0  0  0  0
    1.0547    0.8982   11.7740 C   0  0  0  0  0  0  0  0  0  0  0  0
   -0.1651    0.8411   12.1886 O   0  0  0  0  0  0  0  0  0  0  0  0
    1.4902   -0.2591   11.0873 N   0  0  0  0  0  0  0  0  0  0  0  0
    0.5268   -1.1403   10.4337 C   0  0  0  0  0  0  0  0  0  0  0  0
   -0.3720   -0.4028    9.5112 C   0  0  0  0  0  0  0  0  0  0  0  0
   -0.9285   -1.3156    8.4936 C   0  0  0  0  0  0  0  0  0  0  0  0
   -0.3121   -2.3512    7.7962 C   0  0  0  0  0  0  0  0  0  0  0  0
   -1.2043   -2.9247    6.9718 N   0  0  0  0  0  0  0  0  0  0  0  0
   -2.3917   -2.3074    7.0966 C   0  0  0  0  0  0  0  0  0  0  0  0
   -3.5915   -2.5276    6.4794 C   0  0  0  0  0  0  0  0  0  0  0  0
   -4.6816   -1.7423    6.7904 C   0  0  0  0  0  0  0  0  0  0  0  0
   -4.5189   -0.7502    7.7260 C   0  0  0  0  0  0  0  0  0  0  0  0
   -3.3144   -0.5253    8.3493 C   0  0  0  0  0  0  0  0  0  0  0  0
   -2.2272   -1.2951    8.0507 C   0  0  0  0  0  0  0  0  0  0  0  0
   -0.2848   -1.9146   11.4080 C   0  0  0  0  0  0  0  0  0  0  0  0
    0.2272   -2.6259   12.3045 O   0  0  0  0  0  0  0  0  0  0  0  0
   -1.6654   -1.8762   11.3590 O   0  0  0  0  0  0  0  0  0  0  0  0
    8.3996    0.6964    8.9536 C   0  0  0  0  0  0  0  0  0  0  0  0
  1  2  1  0
  2  3  2  0
  3  4  1  0
  4  5  2  0
  5  6  1  0
  6  7  2  0
  6  8  1  0
  8  9  2  0
  8 10  1  0
 10 11  1  0
 10 12  1  0
 12 13  1  0
 13 14  1  0
 14 15  2  0
 15 16  1  0
 16 17  2  0
 17 18  1  0
 18 19  2  0
 17 20  1  0
 20 21  2  0
 21 22  1  0
 22 23  2  0
 23 24  1  0
 24 25  2  0
 12 26  1  0
 26 27  2  0
 26 28  1  0
 28 29  1  0
 29 30  1  0
 30 31  1  0
 31 32  2  0
 32 33  1  0
 33 34  1  0
 34 35  2  0
 35 36  1  0
 36 37  2  0
 37 38  1  0
 38 39  2  0
 29 40  1  0
 40 41  2  0
 40 42  1  0
  4 43  1  0
  7  2  1  0
 19 14  1  0
 25 20  1  0
 39 31  1  0
 39 34  1  0
M  END
$$$$
