
     RDKit          3D

 43 47  0  0  0  0  0  0  0  0999 V2000
   -2.7722    2.4939   12.2532 C   0  0  0  0  0  0  0  0  0  0  0  0
   -2.1528    1.3668   11.4745 C   0  0  0  0  0  0  0  0  0  0  0  0
   -2.4514    1.1822   10.1428 C   0  0  0  0  0  0  0  0  0  0  0  0
   -1.8964    0.1501    9.4016 C   0  0  0  0  0  0  0  0  0  0  0  0
   -1.0232   -0.6939   10.0582 C   0  0  0  0  0  0  0  0  0  0  0  0
   -0.6798   -0.5701   11.3837 C   0  0  0  0  0  0  0  0  0  0  0  0
   -1.2749    0.4926   12.0761 C   0  0  0  0  0  0  0  0  0  0  0  0
    0.2435   -1.4715   12.0783 C   0  0  0  0  0  0  0  0  0  0  0  0
   -0.2802   -2.2636   12.8886 O   0  0  0  0  0  0  0  0  0  0  0  0
    1.6196   -1.4524   11.8523 N   0  0  0  0  0  0  0  0  0  0  0  0
    2.5460   -2.4153   12.4277 C   0  0  0  0  0  0  0  0  0  0  0  0
    2.2296   -0.4098   11.0080 C   0  0  0  0  0  0  0  0  0  0  0  0
    3.5427    0.0272   11.5514 C   0  0  0  0  0  0  0  0  0  0  0  0
    3.5023    1.4100   12.0732 C   0  0  0  0  0  0  0  0  0  0  0  0
    4.6260    2.0203   12.6114 C   0  0  0  0  0  0  0  0  0  0  0  0
    4.6274    3.3168   13.0820 C   0  0  0  0  0  0  0  0  0  0  0  0
    3.4785    4.0658   13.0296 C   0  0  0  0  0  0  0  0  0  0  0  0
    2.3481    3.5005   12.5055 C   0  0  0  0  0  0  0  0  0  0  0  0
    2.3497    2.2002   12.0341 C   0  0  0  0  0  0  0  0  0  0  0  0
    3.4800    5.4380   13.5253 C   0  0  0  0  0  0  0  0  0  0  0  0
    4.5913    6.0789   13.9767 C   0  0  0  0  0  0  0  0  0  0  0  0
    4.5624    7.3879   14.4463 C   0  0  0  0  0  0  0  0  0  0  0  0
    3.3559    8.0755   14.4584 C   0  0  0  0  0  0  0  0  0  0  0  0
    2.2322    7.4531   14.0113 C   0  0  0  0  0  0  0  0  0  0  0  0
    2.2866    6.1444   13.5467 C   0  0  0  0  0  0  0  0  0  0  0  0
    2.2350   -0.9442    9.6302 C   0  0  0  0  0  0  0  0  0  0  0  0
    2.9645   -1.9672    9.3398 O   0  0  0  0  0  0  0  0  0  0  0  0
    1.4874   -0.4356    8.5426 N   0  0  0  0  0  0  0  0  0  0  0  0
    1.7691   -0.8748    7.1789 C   0  0  0  0  0  0  0  0  0  0  0  0
    2.3733    0.2027    6.3563 C   0  0  0  0  0  0  0  0  0  0  0  0
    3.6240    0.6842    6.9748 C   0  0  0  0  0  0  0  0  0  0  0  0
    4.8816    0.0882    7.0169 C   0  0  0  0  0  0  0  0  0  0  0  0
    5.7313    0.8897    7.6802 N   0  0  0  0  0  0  0  0  0  0  0  0
    5.0834    1.9972    8.0802 C   0  0  0  0  0  0  0  0  0  0  0  0
    5.5145    3.0920    8.7764 C   0  0  0  0  0  0  0  0  0  0  0  0
    4.6366    4.1158    9.0645 C   0  0  0  0  0  0  0  0  0  0  0  0
    3.3383    3.9958    8.6335 C   0  0  0  0  0  0  0  0  0  0  0  0
    2.9004    2.8969    7.9330 C   0  0  0  0  0  0  0  0  0  0  0  0
    3.7588    1.8762    7.6411 C   0  0  0  0  0  0  0  0  0  0  0  0
    0.5628   -1.4078    6.4947 C   0  0  0  0  0  0  0  0  0  0  0  0
    0.1990   -2.6035    6.5934 O   0  0  0  0  0  0  0  0  0  0  0  0
   -0.2193   -0.5842    5.7073 O   0  0  0  0  0  0  0  0  0  0  0  0
   -2.2423   -0.0246    7.9560 C   0  0  0  0  0  0  0  0  0  0  0  0
  1  2  1  0
  2  3  2  0
  3  4  1  0
  4  5  2  0
  5  6  1  0
  6  7  2  0
  6  8  1  0
  8  9  2  0
  8 10  1  0
 10 11  1  0
 10 12  1  0
 12 13  1  0
 13 14  1  0
 14 15  2  0
 15 16  1  0
 16 17  2  0
 17 18  1  0
 18 19  2  0
 17 20  1  0
 20 21  2  0
 21 22  1  0
 22 23  2  0
 23 24  1  0
 24 25  2  0
 12 26  1  0
 26 27  2  0
 26 28  1  0
 28 29  1  0
 29 30  1  0
 30 31  1  0
 31 32  2  0
 32 33  1  0
 33 34  1  0
 34 35  2  0
 35 36  1  0
 36 37  2  0
 37 38  1  0
 38 39  2  0
 29 40  1  0
 40 41  2  0
 40 42  1  0
  4 43  1  0
  7  2  1  0
 19 14  1  0
 25 20  1  0
 39 31  1  0
 39 34  1  0
M  END
$$$$
