
     RDKit          3D

 43 47  0  0  0  0  0  0  0  0999 V2000
   -3.0214    2.3940   12.0489 C   0  0  0  0  0  0  0  0  0  0  0  0
   -1.5512    2.7059   12.0107 C   0  0  0  0  0  0  0  0  0  0  0  0
   -1.0616    3.6961   11.1882 C   0  0  0  0  0  0  0  0  0  0  0  0
    0.2895    4.0032   11.1317 C   0  0  0  0  0  0  0  0  0  0  0  0
    1.1333    3.2694   11.9413 C   0  0  0  0  0  0  0  0  0  0  0  0
    0.7154    2.2680   12.7855 C   0  0  0  0  0  0  0  0  0  0  0  0
   -0.6610    2.0070   12.7957 C   0  0  0  0  0  0  0  0  0  0  0  0
    1.6153    1.4878   13.6393 C   0  0  0  0  0  0  0  0  0  0  0  0
    1.8967    2.0018   14.7415 O   0  0  0  0  0  0  0  0  0  0  0  0
    2.1268    0.2492   13.2526 N   0  0  0  0  0  0  0  0  0  0  0  0
    2.4783   -0.8073   14.1889 C   0  0  0  0  0  0  0  0  0  0  0  0
    2.3647   -0.0564   11.8307 C   0  0  0  0  0  0  0  0  0  0  0  0
    3.8034   -0.3244   11.5681 C   0  0  0  0  0  0  0  0  0  0  0  0
    4.5883    0.9197   11.4196 C   0  0  0  0  0  0  0  0  0  0  0  0
    5.5563    1.2868   12.3433 C   0  0  0  0  0  0  0  0  0  0  0  0
    6.3229    2.4266   12.2194 C   0  0  0  0  0  0  0  0  0  0  0  0
    6.1444    3.2586   11.1426 C   0  0  0  0  0  0  0  0  0  0  0  0
    5.1996    2.9319   10.2085 C   0  0  0  0  0  0  0  0  0  0  0  0
    4.4323    1.7881   10.3352 C   0  0  0  0  0  0  0  0  0  0  0  0
    6.9566    4.4633   11.0100 C   0  0  0  0  0  0  0  0  0  0  0  0
    7.9615    4.7969   11.8635 C   0  0  0  0  0  0  0  0  0  0  0  0
    8.7183    5.9543   11.7137 C   0  0  0  0  0  0  0  0  0  0  0  0
    8.4445    6.8090   10.6539 C   0  0  0  0  0  0  0  0  0  0  0  0
    7.4435    6.4942    9.7884 C   0  0  0  0  0  0  0  0  0  0  0  0
    6.7013    5.3317    9.9591 C   0  0  0  0  0  0  0  0  0  0  0  0
    1.4210   -1.1369   11.4764 C   0  0  0  0  0  0  0  0  0  0  0  0
    1.7088   -2.3615   11.7606 O   0  0  0  0  0  0  0  0  0  0  0  0
    0.1728   -0.9673   10.8330 N   0  0  0  0  0  0  0  0  0  0  0  0
   -0.7924   -2.0618   10.7863 C   0  0  0  0  0  0  0  0  0  0  0  0
   -2.0263   -1.6904   10.0496 C   0  0  0  0  0  0  0  0  0  0  0  0
   -1.7060   -1.3341    8.6535 C   0  0  0  0  0  0  0  0  0  0  0  0
   -0.7197   -0.4863    8.1564 C   0  0  0  0  0  0  0  0  0  0  0  0
   -0.7860   -0.4659    6.8149 N   0  0  0  0  0  0  0  0  0  0  0  0
   -1.7810   -1.2700    6.4027 C   0  0  0  0  0  0  0  0  0  0  0  0
   -2.2312   -1.5771    5.1489 C   0  0  0  0  0  0  0  0  0  0  0  0
   -3.2875   -2.4493    4.9897 C   0  0  0  0  0  0  0  0  0  0  0  0
   -3.8583   -2.9872    6.1169 C   0  0  0  0  0  0  0  0  0  0  0  0
   -3.4089   -2.6814    7.3797 C   0  0  0  0  0  0  0  0  0  0  0  0
   -2.3643   -1.8194    7.5516 C   0  0  0  0  0  0  0  0  0  0  0  0
   -1.1503   -2.5600   12.1395 C   0  0  0  0  0  0  0  0  0  0  0  0
   -0.5834   -2.1578   13.1829 O   0  0  0  0  0  0  0  0  0  0  0  0
   -2.1448   -3.5064   12.2990 O   0  0  0  0  0  0  0  0  0  0  0  0
    0.7903    5.0844   10.2261 C   0  0  0  0  0  0  0  0  0  0  0  0
  1  2  1  0
  2  3  2  0
  3  4  1  0
  4  5  2  0
  5  6  1  0
  6  7  2  0
  6  8  1  0
  8  9  2  0
  8 10  1  0
 10 11  1  0
 10 12  1  0
 12 13  1  0
 13 14  1  0
 14 15  2  0
 15 16  1  0
 16 17  2  0
 17 18  1  0
 18 19  2  0
 17 20  1  0
 20 21  2  0
 21 22  1  0
 22 23  2  0
 23 24  1  0
 24 25  2  0
 12 26  1  0
 26 27  2  0
 26 28  1  0
 28 29  1  0
 29 30  1  0
 30 31  1  0
 31 32  2  0
 32 33  1  0
 33 34  1  0
 34 35  2  0
 35 36  1  0
 36 37  2  0
 37 38  1  0
 38 39  2  0
 29 40  1  0
 40 41  2  0
 40 42  1  0
  4 43  1  0
  7  2  1  0
 19 14  1  0
 25 20  1  0
 39 31  1  0
 39 34  1  0
M  END
$$$$
