
     RDKit          3D

 43 47  0  0  0  0  0  0  0  0999 V2000
    3.2109    0.6831    5.5247 C   0  0  0  0  0  0  0  0  0  0  0  0
    3.3853    1.4482    6.8070 C   0  0  0  0  0  0  0  0  0  0  0  0
    4.1864    2.5674    6.8570 C   0  0  0  0  0  0  0  0  0  0  0  0
    4.3666    3.2905    8.0264 C   0  0  0  0  0  0  0  0  0  0  0  0
    3.7039    2.8396    9.1504 C   0  0  0  0  0  0  0  0  0  0  0  0
    2.8897    1.7320    9.1742 C   0  0  0  0  0  0  0  0  0  0  0  0
    2.7497    1.0459    7.9607 C   0  0  0  0  0  0  0  0  0  0  0  0
    2.1923    1.2536   10.3710 C   0  0  0  0  0  0  0  0  0  0  0  0
    1.6173    2.1299   11.0491 O   0  0  0  0  0  0  0  0  0  0  0  0
    2.1671   -0.0928   10.7342 N   0  0  0  0  0  0  0  0  0  0  0  0
    2.8268   -1.1458    9.9777 C   0  0  0  0  0  0  0  0  0  0  0  0
    1.4298   -0.5362   11.9307 C   0  0  0  0  0  0  0  0  0  0  0  0
    0.6944   -1.8028   11.6749 C   0  0  0  0  0  0  0  0  0  0  0  0
   -0.4613   -1.6087   10.7734 C   0  0  0  0  0  0  0  0  0  0  0  0
   -1.0503   -0.3647   10.5990 C   0  0  0  0  0  0  0  0  0  0  0  0
   -2.1120   -0.1461    9.7462 C   0  0  0  0  0  0  0  0  0  0  0  0
   -2.6339   -1.1878    9.0210 C   0  0  0  0  0  0  0  0  0  0  0  0
   -2.0809   -2.4311    9.1641 C   0  0  0  0  0  0  0  0  0  0  0  0
   -1.0162   -2.6474   10.0200 C   0  0  0  0  0  0  0  0  0  0  0  0
   -3.7556   -0.9566    8.1171 C   0  0  0  0  0  0  0  0  0  0  0  0
   -4.1648    0.2775    7.7182 C   0  0  0  0  0  0  0  0  0  0  0  0
   -5.2401    0.4680    6.8567 C   0  0  0  0  0  0  0  0  0  0  0  0
   -5.9292   -0.6395    6.3799 C   0  0  0  0  0  0  0  0  0  0  0  0
   -5.5364   -1.8831    6.7664 C   0  0  0  0  0  0  0  0  0  0  0  0
   -4.4585   -2.0477    7.6281 C   0  0  0  0  0  0  0  0  0  0  0  0
    2.4106   -0.5590   13.0359 C   0  0  0  0  0  0  0  0  0  0  0  0
    2.5474   -1.6221   13.7529 O   0  0  0  0  0  0  0  0  0  0  0  0
    3.2616    0.5074   13.4090 N   0  0  0  0  0  0  0  0  0  0  0  0
    3.5327    0.7822   14.8171 C   0  0  0  0  0  0  0  0  0  0  0  0
    4.7732    1.5753   15.0049 C   0  0  0  0  0  0  0  0  0  0  0  0
    5.0236    2.4281   13.8266 C   0  0  0  0  0  0  0  0  0  0  0  0
    5.8723    2.2196   12.7426 C   0  0  0  0  0  0  0  0  0  0  0  0
    5.7745    3.2575   11.8955 N   0  0  0  0  0  0  0  0  0  0  0  0
    4.8910    4.1482   12.3776 C   0  0  0  0  0  0  0  0  0  0  0  0
    4.4563    5.3458   11.8817 C   0  0  0  0  0  0  0  0  0  0  0  0
    3.5237    6.0839   12.5798 C   0  0  0  0  0  0  0  0  0  0  0  0
    3.0575    5.5794   13.7689 C   0  0  0  0  0  0  0  0  0  0  0  0
    3.4916    4.3756   14.2715 C   0  0  0  0  0  0  0  0  0  0  0  0
    4.4145    3.6350   13.5907 C   0  0  0  0  0  0  0  0  0  0  0  0
    3.6050   -0.4575   15.6327 C   0  0  0  0  0  0  0  0  0  0  0  0
    4.2745   -1.4596   15.2871 O   0  0  0  0  0  0  0  0  0  0  0  0
    2.9207   -0.5513   16.8298 O   0  0  0  0  0  0  0  0  0  0  0  0
    5.2451    4.5020    8.0482 C   0  0  0  0  0  0  0  0  0  0  0  0
  1  2  1  0
  2  3  2  0
  3  4  1  0
  4  5  2  0
  5  6  1  0
  6  7  2  0
  6  8  1  0
  8  9  2  0
  8 10  1  0
 10 11  1  0
 10 12  1  0
 12 13  1  0
 13 14  1  0
 14 15  2  0
 15 16  1  0
 16 17  2  0
 17 18  1  0
 18 19  2  0
 17 20  1  0
 20 21  2  0
 21 22  1  0
 22 23  2  0
 23 24  1  0
 24 25  2  0
 12 26  1  0
 26 27  2  0
 26 28  1  0
 28 29  1  0
 29 30  1  0
 30 31  1  0
 31 32  2  0
 32 33  1  0
 33 34  1  0
 34 35  2  0
 35 36  1  0
 36 37  2  0
 37 38  1  0
 38 39  2  0
 29 40  1  0
 40 41  2  0
 40 42  1  0
  4 43  1  0
  7  2  1  0
 19 14  1  0
 25 20  1  0
 39 31  1  0
 39 34  1  0
M  END
$$$$
