
     RDKit          3D

 43 47  0  0  0  0  0  0  0  0999 V2000
    5.4792    5.4290   11.3097 C   0  0  0  0  0  0  0  0  0  0  0  0
    4.7145    4.4956   10.4128 C   0  0  0  0  0  0  0  0  0  0  0  0
    4.5406    4.7853    9.0777 C   0  0  0  0  0  0  0  0  0  0  0  0
    3.8383    3.9435    8.2286 C   0  0  0  0  0  0  0  0  0  0  0  0
    3.3150    2.7913    8.7803 C   0  0  0  0  0  0  0  0  0  0  0  0
    3.4489    2.4386   10.1024 C   0  0  0  0  0  0  0  0  0  0  0  0
    4.1691    3.3314   10.9068 C   0  0  0  0  0  0  0  0  0  0  0  0
    2.8871    1.2170   10.6852 C   0  0  0  0  0  0  0  0  0  0  0  0
    3.2703    0.1460   10.1709 O   0  0  0  0  0  0  0  0  0  0  0  0
    1.9835    1.2418   11.7472 N   0  0  0  0  0  0  0  0  0  0  0  0
    1.4374    2.4651   12.3146 C   0  0  0  0  0  0  0  0  0  0  0  0
    1.5358   -0.0094   12.3843 C   0  0  0  0  0  0  0  0  0  0  0  0
    1.6846    0.0524   13.8624 C   0  0  0  0  0  0  0  0  0  0  0  0
    3.0806   -0.1696   14.2959 C   0  0  0  0  0  0  0  0  0  0  0  0
    3.9051    0.8820   14.6690 C   0  0  0  0  0  0  0  0  0  0  0  0
    5.2025    0.7057   15.1027 C   0  0  0  0  0  0  0  0  0  0  0  0
    5.7330   -0.5577   15.1805 C   0  0  0  0  0  0  0  0  0  0  0  0
    4.9520   -1.6223   14.8218 C   0  0  0  0  0  0  0  0  0  0  0  0
    3.6513   -1.4425   14.3873 C   0  0  0  0  0  0  0  0  0  0  0  0
    7.1046   -0.7449   15.6414 C   0  0  0  0  0  0  0  0  0  0  0  0
    7.5550   -1.8817   16.2368 C   0  0  0  0  0  0  0  0  0  0  0  0
    8.8686   -2.0312   16.6687 C   0  0  0  0  0  0  0  0  0  0  0  0
    9.7629   -0.9840   16.4892 C   0  0  0  0  0  0  0  0  0  0  0  0
    9.3332    0.1620   15.8958 C   0  0  0  0  0  0  0  0  0  0  0  0
    8.0154    0.2874   15.4726 C   0  0  0  0  0  0  0  0  0  0  0  0
    0.1742   -0.2699   11.8726 C   0  0  0  0  0  0  0  0  0  0  0  0
   -0.8066   -0.4138   12.6974 O   0  0  0  0  0  0  0  0  0  0  0  0
   -0.1909   -0.3788   10.5104 N   0  0  0  0  0  0  0  0  0  0  0  0
   -1.3905   -1.1142   10.1205 C   0  0  0  0  0  0  0  0  0  0  0  0
   -1.5803   -1.1377    8.6487 C   0  0  0  0  0  0  0  0  0  0  0  0
   -0.2898   -1.3533    7.9655 C   0  0  0  0  0  0  0  0  0  0  0  0
    0.4991   -2.4986    7.8968 C   0  0  0  0  0  0  0  0  0  0  0  0
    1.5904   -2.2428    7.1564 N   0  0  0  0  0  0  0  0  0  0  0  0
    1.5547   -0.9685    6.7304 C   0  0  0  0  0  0  0  0  0  0  0  0
    2.4249   -0.2519    5.9569 C   0  0  0  0  0  0  0  0  0  0  0  0
    2.1537    1.0658    5.6534 C   0  0  0  0  0  0  0  0  0  0  0  0
    0.9985    1.6194    6.1482 C   0  0  0  0  0  0  0  0  0  0  0  0
    0.1205    0.9026    6.9263 C   0  0  0  0  0  0  0  0  0  0  0  0
    0.3767   -0.4024    7.2343 C   0  0  0  0  0  0  0  0  0  0  0  0
   -2.6162   -0.5859   10.7731 C   0  0  0  0  0  0  0  0  0  0  0  0
   -3.7108   -1.1970   10.7577 O   0  0  0  0  0  0  0  0  0  0  0  0
   -2.5917    0.6264   11.4363 O   0  0  0  0  0  0  0  0  0  0  0  0
    3.6657    4.2874    6.7823 C   0  0  0  0  0  0  0  0  0  0  0  0
  1  2  1  0
  2  3  2  0
  3  4  1  0
  4  5  2  0
  5  6  1  0
  6  7  2  0
  6  8  1  0
  8  9  2  0
  8 10  1  0
 10 11  1  0
 10 12  1  0
 12 13  1  0
 13 14  1  0
 14 15  2  0
 15 16  1  0
 16 17  2  0
 17 18  1  0
 18 19  2  0
 17 20  1  0
 20 21  2  0
 21 22  1  0
 22 23  2  0
 23 24  1  0
 24 25  2  0
 12 26  1  0
 26 27  2  0
 26 28  1  0
 28 29  1  0
 29 30  1  0
 30 31  1  0
 31 32  2  0
 32 33  1  0
 33 34  1  0
 34 35  2  0
 35 36  1  0
 36 37  2  0
 37 38  1  0
 38 39  2  0
 29 40  1  0
 40 41  2  0
 40 42  1  0
  4 43  1  0
  7  2  1  0
 19 14  1  0
 25 20  1  0
 39 31  1  0
 39 34  1  0
M  END
$$$$
