
     RDKit          3D

 43 47  0  0  0  0  0  0  0  0999 V2000
    5.9345    4.2324    8.2365 C   0  0  0  0  0  0  0  0  0  0  0  0
    4.8094    3.2387    8.3198 C   0  0  0  0  0  0  0  0  0  0  0  0
    4.1838    2.7847    7.1799 C   0  0  0  0  0  0  0  0  0  0  0  0
    3.1425    1.8703    7.2278 C   0  0  0  0  0  0  0  0  0  0  0  0
    2.7537    1.4281    8.4764 C   0  0  0  0  0  0  0  0  0  0  0  0
    3.3315    1.8377    9.6549 C   0  0  0  0  0  0  0  0  0  0  0  0
    4.3777    2.7621    9.5377 C   0  0  0  0  0  0  0  0  0  0  0  0
    2.9120    1.3698   10.9788 C   0  0  0  0  0  0  0  0  0  0  0  0
    3.8190    0.9104   11.7030 O   0  0  0  0  0  0  0  0  0  0  0  0
    1.5868    1.4324   11.4091 N   0  0  0  0  0  0  0  0  0  0  0  0
    0.4966    1.9466   10.5946 C   0  0  0  0  0  0  0  0  0  0  0  0
    1.2128    0.9855   12.7627 C   0  0  0  0  0  0  0  0  0  0  0  0
    0.6380    2.1001   13.5612 C   0  0  0  0  0  0  0  0  0  0  0  0
    1.6197    3.1774   13.8097 C   0  0  0  0  0  0  0  0  0  0  0  0
    2.7013    2.9976   14.6599 C   0  0  0  0  0  0  0  0  0  0  0  0
    3.6482    3.9731   14.8920 C   0  0  0  0  0  0  0  0  0  0  0  0
    3.5444    5.1909   14.2676 C   0  0  0  0  0  0  0  0  0  0  0  0
    2.4921    5.4083   13.4207 C   0  0  0  0  0  0  0  0  0  0  0  0
    1.5440    4.4281   13.1897 C   0  0  0  0  0  0  0  0  0  0  0  0
    4.5471    6.2224   14.5111 C   0  0  0  0  0  0  0  0  0  0  0  0
    4.3329    7.5499   14.3072 C   0  0  0  0  0  0  0  0  0  0  0  0
    5.3091    8.5115   14.5458 C   0  0  0  0  0  0  0  0  0  0  0  0
    6.5547    8.1100   15.0106 C   0  0  0  0  0  0  0  0  0  0  0  0
    6.7900    6.7870   15.2213 C   0  0  0  0  0  0  0  0  0  0  0  0
    5.7983    5.8449   14.9756 C   0  0  0  0  0  0  0  0  0  0  0  0
    0.3540   -0.2035   12.5831 C   0  0  0  0  0  0  0  0  0  0  0  0
   -0.7164   -0.3369   13.2899 O   0  0  0  0  0  0  0  0  0  0  0  0
    0.5849   -1.2610   11.6726 N   0  0  0  0  0  0  0  0  0  0  0  0
   -0.3413   -2.3869   11.5929 C   0  0  0  0  0  0  0  0  0  0  0  0
   -1.4821   -2.1113   10.6842 C   0  0  0  0  0  0  0  0  0  0  0  0
   -1.0052   -1.9218    9.3003 C   0  0  0  0  0  0  0  0  0  0  0  0
    0.2486   -1.5306    8.8380 C   0  0  0  0  0  0  0  0  0  0  0  0
    0.2370   -1.4990    7.4951 N   0  0  0  0  0  0  0  0  0  0  0  0
   -0.9795   -1.8554    7.0485 C   0  0  0  0  0  0  0  0  0  0  0  0
   -1.4748   -1.9747    5.7798 C   0  0  0  0  0  0  0  0  0  0  0  0
   -2.7822   -2.3674    5.5838 C   0  0  0  0  0  0  0  0  0  0  0  0
   -3.5522   -2.6291    6.6903 C   0  0  0  0  0  0  0  0  0  0  0  0
   -3.0584   -2.5105    7.9679 C   0  0  0  0  0  0  0  0  0  0  0  0
   -1.7662   -2.1226    8.1762 C   0  0  0  0  0  0  0  0  0  0  0  0
   -0.8532   -2.7951   12.9266 C   0  0  0  0  0  0  0  0  0  0  0  0
   -0.0987   -3.1345   13.8686 O   0  0  0  0  0  0  0  0  0  0  0  0
   -2.2114   -2.8147   13.1814 O   0  0  0  0  0  0  0  0  0  0  0  0
    2.4823    1.3972    5.9707 C   0  0  0  0  0  0  0  0  0  0  0  0
  1  2  1  0
  2  3  2  0
  3  4  1  0
  4  5  2  0
  5  6  1  0
  6  7  2  0
  6  8  1  0
  8  9  2  0
  8 10  1  0
 10 11  1  0
 10 12  1  0
 12 13  1  0
 13 14  1  0
 14 15  2  0
 15 16  1  0
 16 17  2  0
 17 18  1  0
 18 19  2  0
 17 20  1  0
 20 21  2  0
 21 22  1  0
 22 23  2  0
 23 24  1  0
 24 25  2  0
 12 26  1  0
 26 27  2  0
 26 28  1  0
 28 29  1  0
 29 30  1  0
 30 31  1  0
 31 32  2  0
 32 33  1  0
 33 34  1  0
 34 35  2  0
 35 36  1  0
 36 37  2  0
 37 38  1  0
 38 39  2  0
 29 40  1  0
 40 41  2  0
 40 42  1  0
  4 43  1  0
  7  2  1  0
 19 14  1  0
 25 20  1  0
 39 31  1  0
 39 34  1  0
M  END
$$$$
