
     RDKit          3D

 25 28  0  0  0  0  0  0  0  0999 V2000
    2.3346    0.2204    6.1993 C   0  0  0  0  0  0  0  0  0  0  0  0
    3.5108   -0.0864    6.8506 C   0  0  0  0  0  0  0  0  0  0  0  0
    3.5983    0.7016    7.8731 O   0  0  0  0  0  0  0  0  0  0  0  0
    2.5780    1.5191    7.9689 C   0  0  0  0  0  0  0  0  0  0  0  0
    1.7471    1.2520    6.9281 C   0  0  0  0  0  0  0  0  0  0  0  0
    2.4193    2.5212    9.0332 C   0  0  0  0  0  0  0  0  0  0  0  0
    3.1773    2.6351   10.1527 N   0  0  0  0  0  0  0  0  0  0  0  0
    2.7808    3.6465   10.9033 N   0  0  0  0  0  0  0  0  0  0  0  0
    3.2113    4.1532   12.0888 C   0  0  0  0  0  0  0  0  0  0  0  0
    2.5835    5.2383   12.6303 N   0  0  0  0  0  0  0  0  0  0  0  0
    1.5424    5.8137   12.0040 C   0  0  0  0  0  0  0  0  0  0  0  0
    1.1415    5.2961   10.8444 N   0  0  0  0  0  0  0  0  0  0  0  0
    1.7469    4.2133   10.2769 C   0  0  0  0  0  0  0  0  0  0  0  0
    1.5209    3.5219    9.1225 N   0  0  0  0  0  0  0  0  0  0  0  0
    0.9053    6.9462   12.5641 N   0  0  0  0  0  0  0  0  0  0  0  0
    1.3606    7.6364   13.7463 C   0  0  0  0  0  0  0  0  0  0  0  0
    2.6569    8.3769   13.5183 C   0  0  0  0  0  0  0  0  0  0  0  0
    3.3459    8.4448   14.8355 C   0  0  0  0  0  0  0  0  0  0  0  0
    4.6515    8.8950   14.9506 C   0  0  0  0  0  0  0  0  0  0  0  0
    5.2508    8.9327   16.1871 C   0  0  0  0  0  0  0  0  0  0  0  0
    4.5547    8.5222   17.3167 C   0  0  0  0  0  0  0  0  0  0  0  0
    3.2719    8.0784   17.2132 C   0  0  0  0  0  0  0  0  0  0  0  0
    2.6731    8.0423   15.9678 C   0  0  0  0  0  0  0  0  0  0  0  0
    5.1962    8.5743   18.5577 O   0  0  0  0  0  0  0  0  0  0  0  0
    4.3126    3.5397   12.7322 N   0  0  0  0  0  0  0  0  0  0  0  0
  1  2  2  0
  2  3  1  0
  3  4  1  0
  4  5  2  0
  4  6  1  0
  6  7  2  0
  7  8  1  0
  8  9  1  0
  9 10  2  0
 10 11  1  0
 11 12  2  0
 12 13  1  0
 13 14  2  0
 11 15  1  0
 15 16  1  0
 16 17  1  0
 17 18  1  0
 18 19  2  0
 19 20  1  0
 20 21  2  0
 21 22  1  0
 22 23  2  0
 21 24  1  0
  9 25  1  0
  5  1  1  0
 14  6  1  0
 13  8  1  0
 23 18  1  0
M  END
$$$$
