
     RDKit          3D

 25 28  0  0  0  0  0  0  0  0999 V2000
    1.7432    0.1626    6.3182 C   0  0  0  0  0  0  0  0  0  0  0  0
    2.7814   -0.3828    7.0437 C   0  0  0  0  0  0  0  0  0  0  0  0
    2.9842    0.3905    8.0612 O   0  0  0  0  0  0  0  0  0  0  0  0
    2.1691    1.4168    8.0854 C   0  0  0  0  0  0  0  0  0  0  0  0
    1.3607    1.3165    6.9985 C   0  0  0  0  0  0  0  0  0  0  0  0
    2.1779    2.4544    9.1272 C   0  0  0  0  0  0  0  0  0  0  0  0
    3.0010    2.5083   10.2043 N   0  0  0  0  0  0  0  0  0  0  0  0
    2.7585    3.5747   10.9444 N   0  0  0  0  0  0  0  0  0  0  0  0
    3.3036    4.0570   12.0923 C   0  0  0  0  0  0  0  0  0  0  0  0
    2.8287    5.2177   12.6328 N   0  0  0  0  0  0  0  0  0  0  0  0
    1.8267    5.8917   12.0422 C   0  0  0  0  0  0  0  0  0  0  0  0
    1.3111    5.3958   10.9190 N   0  0  0  0  0  0  0  0  0  0  0  0
    1.7626    4.2393   10.3536 C   0  0  0  0  0  0  0  0  0  0  0  0
    1.4017    3.5513    9.2318 N   0  0  0  0  0  0  0  0  0  0  0  0
    1.3489    7.1010   12.6004 N   0  0  0  0  0  0  0  0  0  0  0  0
    1.7115    7.5955   13.9062 C   0  0  0  0  0  0  0  0  0  0  0  0
    3.1640    8.0011   13.9862 C   0  0  0  0  0  0  0  0  0  0  0  0
    3.4091    8.4317   15.3895 C   0  0  0  0  0  0  0  0  0  0  0  0
    4.6705    8.8044   15.8256 C   0  0  0  0  0  0  0  0  0  0  0  0
    4.8519    9.1871   17.1333 C   0  0  0  0  0  0  0  0  0  0  0  0
    3.7790    9.2008   18.0152 C   0  0  0  0  0  0  0  0  0  0  0  0
    2.5363    8.8362   17.5958 C   0  0  0  0  0  0  0  0  0  0  0  0
    2.3585    8.4522   16.2798 C   0  0  0  0  0  0  0  0  0  0  0  0
    4.0009    9.5957   19.3379 O   0  0  0  0  0  0  0  0  0  0  0  0
    4.3621    3.3388   12.6981 N   0  0  0  0  0  0  0  0  0  0  0  0
  1  2  2  0
  2  3  1  0
  3  4  1  0
  4  5  2  0
  4  6  1  0
  6  7  2  0
  7  8  1  0
  8  9  1  0
  9 10  2  0
 10 11  1  0
 11 12  2  0
 12 13  1  0
 13 14  2  0
 11 15  1  0
 15 16  1  0
 16 17  1  0
 17 18  1  0
 18 19  2  0
 19 20  1  0
 20 21  2  0
 21 22  1  0
 22 23  2  0
 21 24  1  0
  9 25  1  0
  5  1  1  0
 14  6  1  0
 13  8  1  0
 23 18  1  0
M  END
$$$$
