
     RDKit          3D

 25 28  0  0  0  0  0  0  0  0999 V2000
    1.8136    0.0730    6.3587 C   0  0  0  0  0  0  0  0  0  0  0  0
    3.0042   -0.3084    6.9407 C   0  0  0  0  0  0  0  0  0  0  0  0
    3.2394    0.5192    7.9071 O   0  0  0  0  0  0  0  0  0  0  0  0
    2.3063    1.4318    8.0284 C   0  0  0  0  0  0  0  0  0  0  0  0
    1.3777    1.1905    7.0670 C   0  0  0  0  0  0  0  0  0  0  0  0
    2.3194    2.4971    9.0419 C   0  0  0  0  0  0  0  0  0  0  0  0
    3.1395    2.5742   10.1199 N   0  0  0  0  0  0  0  0  0  0  0  0
    2.9024    3.6620   10.8300 N   0  0  0  0  0  0  0  0  0  0  0  0
    3.4474    4.1712   11.9663 C   0  0  0  0  0  0  0  0  0  0  0  0
    2.9792    5.3495   12.4737 N   0  0  0  0  0  0  0  0  0  0  0  0
    1.9839    6.0143   11.8618 C   0  0  0  0  0  0  0  0  0  0  0  0
    1.4682    5.4919   10.7507 N   0  0  0  0  0  0  0  0  0  0  0  0
    1.9131    4.3173   10.2182 C   0  0  0  0  0  0  0  0  0  0  0  0
    1.5507    3.6019    9.1143 N   0  0  0  0  0  0  0  0  0  0  0  0
    1.5131    7.2416   12.3856 N   0  0  0  0  0  0  0  0  0  0  0  0
    1.7637    7.7045   13.7288 C   0  0  0  0  0  0  0  0  0  0  0  0
    3.0326    7.1277   14.3100 C   0  0  0  0  0  0  0  0  0  0  0  0
    3.3632    7.9470   15.5076 C   0  0  0  0  0  0  0  0  0  0  0  0
    4.6125    8.5238   15.6714 C   0  0  0  0  0  0  0  0  0  0  0  0
    4.8760    9.2657   16.7981 C   0  0  0  0  0  0  0  0  0  0  0  0
    3.8979    9.4380   17.7690 C   0  0  0  0  0  0  0  0  0  0  0  0
    2.6677    8.8751   17.6166 C   0  0  0  0  0  0  0  0  0  0  0  0
    2.4072    8.1298   16.4819 C   0  0  0  0  0  0  0  0  0  0  0  0
    4.2015   10.1990   18.9018 O   0  0  0  0  0  0  0  0  0  0  0  0
    4.4989    3.4622   12.5947 N   0  0  0  0  0  0  0  0  0  0  0  0
  1  2  2  0
  2  3  1  0
  3  4  1  0
  4  5  2  0
  4  6  1  0
  6  7  2  0
  7  8  1  0
  8  9  1  0
  9 10  2  0
 10 11  1  0
 11 12  2  0
 12 13  1  0
 13 14  2  0
 11 15  1  0
 15 16  1  0
 16 17  1  0
 17 18  1  0
 18 19  2  0
 19 20  1  0
 20 21  2  0
 21 22  1  0
 22 23  2  0
 21 24  1  0
  9 25  1  0
  5  1  1  0
 14  6  1  0
 13  8  1  0
 23 18  1  0
M  END
$$$$
