
     RDKit          3D

 25 28  0  0  0  0  0  0  0  0999 V2000
    2.5280    0.6570    5.9194 C   0  0  0  0  0  0  0  0  0  0  0  0
    3.6844    0.3257    6.5935 C   0  0  0  0  0  0  0  0  0  0  0  0
    3.7538    1.0927    7.6333 O   0  0  0  0  0  0  0  0  0  0  0  0
    2.7394    1.9183    7.7199 C   0  0  0  0  0  0  0  0  0  0  0  0
    1.9323    1.6800    6.6537 C   0  0  0  0  0  0  0  0  0  0  0  0
    2.5636    2.9009    8.7996 C   0  0  0  0  0  0  0  0  0  0  0  0
    3.2694    2.9619    9.9567 N   0  0  0  0  0  0  0  0  0  0  0  0
    2.8719    3.9696   10.7120 N   0  0  0  0  0  0  0  0  0  0  0  0
    3.2613    4.4332   11.9289 C   0  0  0  0  0  0  0  0  0  0  0  0
    2.6457    5.5276   12.4660 N   0  0  0  0  0  0  0  0  0  0  0  0
    1.6572    6.1541   11.8046 C   0  0  0  0  0  0  0  0  0  0  0  0
    1.2958    5.6778   10.6147 N   0  0  0  0  0  0  0  0  0  0  0  0
    1.8903    4.5872   10.0507 C   0  0  0  0  0  0  0  0  0  0  0  0
    1.6972    3.9309    8.8700 N   0  0  0  0  0  0  0  0  0  0  0  0
    1.0332    7.2957   12.3611 N   0  0  0  0  0  0  0  0  0  0  0  0
    1.4129    7.9036   13.6131 C   0  0  0  0  0  0  0  0  0  0  0  0
    2.7634    8.5756   13.5415 C   0  0  0  0  0  0  0  0  0  0  0  0
    3.2689    8.6654   14.9383 C   0  0  0  0  0  0  0  0  0  0  0  0
    2.4095    8.6447   16.0251 C   0  0  0  0  0  0  0  0  0  0  0  0
    2.9206    8.7388   17.2976 C   0  0  0  0  0  0  0  0  0  0  0  0
    4.2904    8.8544   17.4964 C   0  0  0  0  0  0  0  0  0  0  0  0
    5.1423    8.8756   16.4348 C   0  0  0  0  0  0  0  0  0  0  0  0
    4.6238    8.7806   15.1569 C   0  0  0  0  0  0  0  0  0  0  0  0
    4.7745    8.9478   18.8046 O   0  0  0  0  0  0  0  0  0  0  0  0
    4.3077    3.7661   12.6093 N   0  0  0  0  0  0  0  0  0  0  0  0
  1  2  2  0
  2  3  1  0
  3  4  1  0
  4  5  2  0
  4  6  1  0
  6  7  2  0
  7  8  1  0
  8  9  1  0
  9 10  2  0
 10 11  1  0
 11 12  2  0
 12 13  1  0
 13 14  2  0
 11 15  1  0
 15 16  1  0
 16 17  1  0
 17 18  1  0
 18 19  2  0
 19 20  1  0
 20 21  2  0
 21 22  1  0
 22 23  2  0
 21 24  1  0
  9 25  1  0
  5  1  1  0
 14  6  1  0
 13  8  1  0
 23 18  1  0
M  END
$$$$
