
     RDKit          3D

 25 28  0  0  0  0  0  0  0  0999 V2000
    3.1552   -0.1659    7.1133 C   0  0  0  0  0  0  0  0  0  0  0  0
    2.0843    0.3592    6.4214 C   0  0  0  0  0  0  0  0  0  0  0  0
    1.7149    1.4311    7.0450 O   0  0  0  0  0  0  0  0  0  0  0  0
    2.4471    1.6762    8.1043 C   0  0  0  0  0  0  0  0  0  0  0  0
    3.3765    0.6895    8.1902 C   0  0  0  0  0  0  0  0  0  0  0  0
    2.2485    2.8273    8.9975 C   0  0  0  0  0  0  0  0  0  0  0  0
    3.0212    3.1658   10.0601 N   0  0  0  0  0  0  0  0  0  0  0  0
    2.5781    4.2612   10.6496 N   0  0  0  0  0  0  0  0  0  0  0  0
    3.0009    4.9783   11.7241 C   0  0  0  0  0  0  0  0  0  0  0  0
    2.3181    6.0987   12.1026 N   0  0  0  0  0  0  0  0  0  0  0  0
    1.2303    6.5030   11.4240 C   0  0  0  0  0  0  0  0  0  0  0  0
    0.8382    5.7810   10.3760 N   0  0  0  0  0  0  0  0  0  0  0  0
    1.4980    4.6573    9.9722 C   0  0  0  0  0  0  0  0  0  0  0  0
    1.2914    3.7752    8.9518 N   0  0  0  0  0  0  0  0  0  0  0  0
    0.5356    7.6726   11.8135 N   0  0  0  0  0  0  0  0  0  0  0  0
    0.9027    8.5037   12.9341 C   0  0  0  0  0  0  0  0  0  0  0  0
    0.8756    7.7513   14.2432 C   0  0  0  0  0  0  0  0  0  0  0  0
    1.8495    8.4270   15.1430 C   0  0  0  0  0  0  0  0  0  0  0  0
    2.0721    9.7932   15.0783 C   0  0  0  0  0  0  0  0  0  0  0  0
    2.9876   10.3734   15.9236 C   0  0  0  0  0  0  0  0  0  0  0  0
    3.6877    9.5974   16.8383 C   0  0  0  0  0  0  0  0  0  0  0  0
    3.4757    8.2544   16.9090 C   0  0  0  0  0  0  0  0  0  0  0  0
    2.5540    7.6753   16.0570 C   0  0  0  0  0  0  0  0  0  0  0  0
    4.6110   10.2216   17.6822 O   0  0  0  0  0  0  0  0  0  0  0  0
    4.1516    4.5428   12.4238 N   0  0  0  0  0  0  0  0  0  0  0  0
  1  2  2  0
  2  3  1  0
  3  4  1  0
  4  5  2  0
  4  6  1  0
  6  7  2  0
  7  8  1  0
  8  9  1  0
  9 10  2  0
 10 11  1  0
 11 12  2  0
 12 13  1  0
 13 14  2  0
 11 15  1  0
 15 16  1  0
 16 17  1  0
 17 18  1  0
 18 19  2  0
 19 20  1  0
 20 21  2  0
 21 22  1  0
 22 23  2  0
 21 24  1  0
  9 25  1  0
  5  1  1  0
 14  6  1  0
 13  8  1  0
 23 18  1  0
M  END
$$$$
