
     RDKit          3D

 25 28  0  0  0  0  0  0  0  0999 V2000
    1.9221    0.1828    6.3816 C   0  0  0  0  0  0  0  0  0  0  0  0
    3.0823   -0.1783    7.0336 C   0  0  0  0  0  0  0  0  0  0  0  0
    3.2264    0.6303    8.0333 O   0  0  0  0  0  0  0  0  0  0  0  0
    2.2593    1.5116    8.1130 C   0  0  0  0  0  0  0  0  0  0  0  0
    1.4051    1.2682    7.0854 C   0  0  0  0  0  0  0  0  0  0  0  0
    2.1713    2.5501    9.1503 C   0  0  0  0  0  0  0  0  0  0  0  0
    2.9464    2.6494   10.2593 N   0  0  0  0  0  0  0  0  0  0  0  0
    2.6182    3.7028   10.9849 N   0  0  0  0  0  0  0  0  0  0  0  0
    3.0904    4.2153   12.1519 C   0  0  0  0  0  0  0  0  0  0  0  0
    2.5334    5.3502   12.6684 N   0  0  0  0  0  0  0  0  0  0  0  0
    1.5216    5.9690   12.0355 C   0  0  0  0  0  0  0  0  0  0  0  0
    1.0786    5.4445   10.8944 N   0  0  0  0  0  0  0  0  0  0  0  0
    1.6130    4.3125   10.3521 C   0  0  0  0  0  0  0  0  0  0  0  0
    1.3345    3.6044    9.2195 N   0  0  0  0  0  0  0  0  0  0  0  0
    0.9584    7.1523   12.5693 N   0  0  0  0  0  0  0  0  0  0  0  0
    1.4167    7.8023   13.7729 C   0  0  0  0  0  0  0  0  0  0  0  0
    2.7918    8.4063   13.6141 C   0  0  0  0  0  0  0  0  0  0  0  0
    3.2735    8.7343   14.9834 C   0  0  0  0  0  0  0  0  0  0  0  0
    4.4534    8.2080   15.4844 C   0  0  0  0  0  0  0  0  0  0  0  0
    4.8552    8.5321   16.7584 C   0  0  0  0  0  0  0  0  0  0  0  0
    4.0849    9.3817   17.5418 C   0  0  0  0  0  0  0  0  0  0  0  0
    2.9242    9.9034   17.0581 C   0  0  0  0  0  0  0  0  0  0  0  0
    2.5241    9.5748   15.7764 C   0  0  0  0  0  0  0  0  0  0  0  0
    4.5246    9.6893   18.8328 O   0  0  0  0  0  0  0  0  0  0  0  0
    4.1602    3.5554   12.8024 N   0  0  0  0  0  0  0  0  0  0  0  0
  1  2  2  0
  2  3  1  0
  3  4  1  0
  4  5  2  0
  4  6  1  0
  6  7  2  0
  7  8  1  0
  8  9  1  0
  9 10  2  0
 10 11  1  0
 11 12  2  0
 12 13  1  0
 13 14  2  0
 11 15  1  0
 15 16  1  0
 16 17  1  0
 17 18  1  0
 18 19  2  0
 19 20  1  0
 20 21  2  0
 21 22  1  0
 22 23  2  0
 21 24  1  0
  9 25  1  0
  5  1  1  0
 14  6  1  0
 13  8  1  0
 23 18  1  0
M  END
$$$$
