
     RDKit          3D

 25 28  0  0  0  0  0  0  0  0999 V2000
    2.1957    0.3597    6.1612 C   0  0  0  0  0  0  0  0  0  0  0  0
    3.3286   -0.0313    6.8433 C   0  0  0  0  0  0  0  0  0  0  0  0
    3.4544    0.7590    7.8601 O   0  0  0  0  0  0  0  0  0  0  0  0
    2.4999    1.6552    7.9236 C   0  0  0  0  0  0  0  0  0  0  0  0
    1.6748    1.4425    6.8659 C   0  0  0  0  0  0  0  0  0  0  0  0
    2.3962    2.6786    8.9744 C   0  0  0  0  0  0  0  0  0  0  0  0
    3.1651    2.7710   10.0883 N   0  0  0  0  0  0  0  0  0  0  0  0
    2.8225    3.8111   10.8264 N   0  0  0  0  0  0  0  0  0  0  0  0
    3.2839    4.3127   12.0024 C   0  0  0  0  0  0  0  0  0  0  0  0
    2.7127    5.4347   12.5314 N   0  0  0  0  0  0  0  0  0  0  0  0
    1.6975    6.0514   11.9021 C   0  0  0  0  0  0  0  0  0  0  0  0
    1.2653    5.5377   10.7520 N   0  0  0  0  0  0  0  0  0  0  0  0
    1.8140    4.4188   10.1970 C   0  0  0  0  0  0  0  0  0  0  0  0
    1.5481    3.7232    9.0537 N   0  0  0  0  0  0  0  0  0  0  0  0
    1.1195    7.2214   12.4491 N   0  0  0  0  0  0  0  0  0  0  0  0
    1.4711    7.7817   13.7312 C   0  0  0  0  0  0  0  0  0  0  0  0
    2.7822    8.5302   13.6932 C   0  0  0  0  0  0  0  0  0  0  0  0
    3.1893    8.7478   15.1080 C   0  0  0  0  0  0  0  0  0  0  0  0
    3.6905    7.7172   15.8870 C   0  0  0  0  0  0  0  0  0  0  0  0
    4.0460    7.9625   17.1918 C   0  0  0  0  0  0  0  0  0  0  0  0
    3.9046    9.2352   17.7297 C   0  0  0  0  0  0  0  0  0  0  0  0
    3.4130   10.2539   16.9721 C   0  0  0  0  0  0  0  0  0  0  0  0
    3.0569   10.0025   15.6603 C   0  0  0  0  0  0  0  0  0  0  0  0
    4.2764    9.4479   19.0606 O   0  0  0  0  0  0  0  0  0  0  0  0
    4.3576    3.6552   12.6490 N   0  0  0  0  0  0  0  0  0  0  0  0
  1  2  2  0
  2  3  1  0
  3  4  1  0
  4  5  2  0
  4  6  1  0
  6  7  2  0
  7  8  1  0
  8  9  1  0
  9 10  2  0
 10 11  1  0
 11 12  2  0
 12 13  1  0
 13 14  2  0
 11 15  1  0
 15 16  1  0
 16 17  1  0
 17 18  1  0
 18 19  2  0
 19 20  1  0
 20 21  2  0
 21 22  1  0
 22 23  2  0
 21 24  1  0
  9 25  1  0
  5  1  1  0
 14  6  1  0
 13  8  1  0
 23 18  1  0
M  END
$$$$
