
     RDKit          3D

 25 28  0  0  0  0  0  0  0  0999 V2000
    1.4018    1.2195    6.0806 C   0  0  0  0  0  0  0  0  0  0  0  0
    2.5678    0.5921    6.4659 C   0  0  0  0  0  0  0  0  0  0  0  0
    3.0122    1.2179    7.5076 O   0  0  0  0  0  0  0  0  0  0  0  0
    2.2438    2.2195    7.8606 C   0  0  0  0  0  0  0  0  0  0  0  0
    1.2067    2.2614    6.9844 C   0  0  0  0  0  0  0  0  0  0  0  0
    2.5099    3.1010    9.0070 C   0  0  0  0  0  0  0  0  0  0  0  0
    3.3701    2.8584   10.0278 N   0  0  0  0  0  0  0  0  0  0  0  0
    3.3841    3.8547   10.8944 N   0  0  0  0  0  0  0  0  0  0  0  0
    4.0639    4.0758   12.0504 C   0  0  0  0  0  0  0  0  0  0  0  0
    3.8622    5.2344   12.7445 N   0  0  0  0  0  0  0  0  0  0  0  0
    2.9977    6.1619   12.2977 C   0  0  0  0  0  0  0  0  0  0  0  0
    2.3449    5.9186   11.1627 N   0  0  0  0  0  0  0  0  0  0  0  0
    2.5237    4.7718   10.4459 C   0  0  0  0  0  0  0  0  0  0  0  0
    1.9823    4.3105    9.2814 N   0  0  0  0  0  0  0  0  0  0  0  0
    2.8038    7.3662   13.0148 N   0  0  0  0  0  0  0  0  0  0  0  0
    1.9715    8.4564   12.5677 C   0  0  0  0  0  0  0  0  0  0  0  0
    0.5635    8.3651   13.1059 C   0  0  0  0  0  0  0  0  0  0  0  0
   -0.1103    9.6448   12.7551 C   0  0  0  0  0  0  0  0  0  0  0  0
   -1.1179    9.6993   11.8054 C   0  0  0  0  0  0  0  0  0  0  0  0
   -1.7063   10.9052   11.5072 C   0  0  0  0  0  0  0  0  0  0  0  0
   -1.2953   12.0645   12.1522 C   0  0  0  0  0  0  0  0  0  0  0  0
   -0.3061   12.0207   13.0865 C   0  0  0  0  0  0  0  0  0  0  0  0
    0.2827   10.8058   13.3833 C   0  0  0  0  0  0  0  0  0  0  0  0
   -1.9164   13.2731   11.8235 O   0  0  0  0  0  0  0  0  0  0  0  0
    4.9751    3.0922   12.5038 N   0  0  0  0  0  0  0  0  0  0  0  0
  1  2  2  0
  2  3  1  0
  3  4  1  0
  4  5  2  0
  4  6  1  0
  6  7  2  0
  7  8  1  0
  8  9  1  0
  9 10  2  0
 10 11  1  0
 11 12  2  0
 12 13  1  0
 13 14  2  0
 11 15  1  0
 15 16  1  0
 16 17  1  0
 17 18  1  0
 18 19  2  0
 19 20  1  0
 20 21  2  0
 21 22  1  0
 22 23  2  0
 21 24  1  0
  9 25  1  0
  5  1  1  0
 14  6  1  0
 13  8  1  0
 23 18  1  0
M  END
$$$$
