
     RDKit          3D

 25 28  0  0  0  0  0  0  0  0999 V2000
    2.2059    0.1839    6.3420 C   0  0  0  0  0  0  0  0  0  0  0  0
    3.3718   -0.1765    6.9840 C   0  0  0  0  0  0  0  0  0  0  0  0
    3.5427    0.6544    7.9611 O   0  0  0  0  0  0  0  0  0  0  0  0
    2.5884    1.5502    8.0344 C   0  0  0  0  0  0  0  0  0  0  0  0
    1.7145    1.2930    7.0269 C   0  0  0  0  0  0  0  0  0  0  0  0
    2.5307    2.6148    9.0470 C   0  0  0  0  0  0  0  0  0  0  0  0
    3.3725    2.7731   10.0991 N   0  0  0  0  0  0  0  0  0  0  0  0
    3.0544    3.8353   10.8163 N   0  0  0  0  0  0  0  0  0  0  0  0
    3.5828    4.3976   11.9353 C   0  0  0  0  0  0  0  0  0  0  0  0
    3.0200    5.5273   12.4568 N   0  0  0  0  0  0  0  0  0  0  0  0
    1.9474    6.0922   11.8759 C   0  0  0  0  0  0  0  0  0  0  0  0
    1.4502    5.5197   10.7812 N   0  0  0  0  0  0  0  0  0  0  0  0
    1.9887    4.3914   10.2353 C   0  0  0  0  0  0  0  0  0  0  0  0
    1.6626    3.6414    9.1431 N   0  0  0  0  0  0  0  0  0  0  0  0
    1.3778    7.2705   12.4139 N   0  0  0  0  0  0  0  0  0  0  0  0
    1.5998    7.7428   13.7589 C   0  0  0  0  0  0  0  0  0  0  0  0
    2.7520    7.0381   14.4345 C   0  0  0  0  0  0  0  0  0  0  0  0
    3.1555    7.8897   15.5863 C   0  0  0  0  0  0  0  0  0  0  0  0
    4.1551    7.5001   16.4634 C   0  0  0  0  0  0  0  0  0  0  0  0
    4.4890    8.3151   17.5187 C   0  0  0  0  0  0  0  0  0  0  0  0
    3.8297    9.5228   17.7079 C   0  0  0  0  0  0  0  0  0  0  0  0
    2.8464    9.9138   16.8515 C   0  0  0  0  0  0  0  0  0  0  0  0
    2.5140    9.0910   15.7915 C   0  0  0  0  0  0  0  0  0  0  0  0
    4.1958   10.3261   18.7921 O   0  0  0  0  0  0  0  0  0  0  0  0
    4.7160    3.7941   12.5310 N   0  0  0  0  0  0  0  0  0  0  0  0
  1  2  2  0
  2  3  1  0
  3  4  1  0
  4  5  2  0
  4  6  1  0
  6  7  2  0
  7  8  1  0
  8  9  1  0
  9 10  2  0
 10 11  1  0
 11 12  2  0
 12 13  1  0
 13 14  2  0
 11 15  1  0
 15 16  1  0
 16 17  1  0
 17 18  1  0
 18 19  2  0
 19 20  1  0
 20 21  2  0
 21 22  1  0
 22 23  2  0
 21 24  1  0
  9 25  1  0
  5  1  1  0
 14  6  1  0
 13  8  1  0
 23 18  1  0
M  END
$$$$
