
     RDKit          3D

 25 28  0  0  0  0  0  0  0  0999 V2000
    1.6254    0.6190    6.1868 C   0  0  0  0  0  0  0  0  0  0  0  0
    2.8646    0.2760    6.6853 C   0  0  0  0  0  0  0  0  0  0  0  0
    3.0941    1.0443    7.7008 O   0  0  0  0  0  0  0  0  0  0  0  0
    2.1123    1.8816    7.9321 C   0  0  0  0  0  0  0  0  0  0  0  0
    1.1551    1.6502    6.9967 C   0  0  0  0  0  0  0  0  0  0  0  0
    2.1076    2.8683    9.0223 C   0  0  0  0  0  0  0  0  0  0  0  0
    3.0026    2.9511   10.0385 N   0  0  0  0  0  0  0  0  0  0  0  0
    2.7226    3.9564   10.8477 N   0  0  0  0  0  0  0  0  0  0  0  0
    3.3084    4.4361   11.9765 C   0  0  0  0  0  0  0  0  0  0  0  0
    2.7739    5.5223   12.6085 N   0  0  0  0  0  0  0  0  0  0  0  0
    1.6731    6.1252   12.1270 C   0  0  0  0  0  0  0  0  0  0  0  0
    1.1197    5.6335   11.0200 N   0  0  0  0  0  0  0  0  0  0  0  0
    1.6286    4.5504   10.3651 C   0  0  0  0  0  0  0  0  0  0  0  0
    1.2462    3.8821    9.2386 N   0  0  0  0  0  0  0  0  0  0  0  0
    1.1327    7.2586   12.7794 N   0  0  0  0  0  0  0  0  0  0  0  0
    1.8719    8.1119   13.6775 C   0  0  0  0  0  0  0  0  0  0  0  0
    2.5473    7.3370   14.7839 C   0  0  0  0  0  0  0  0  0  0  0  0
    2.9294    8.3282   15.8261 C   0  0  0  0  0  0  0  0  0  0  0  0
    3.9651    8.0862   16.7144 C   0  0  0  0  0  0  0  0  0  0  0  0
    4.2777    9.0272   17.6664 C   0  0  0  0  0  0  0  0  0  0  0  0
    3.5611   10.2146   17.7405 C   0  0  0  0  0  0  0  0  0  0  0  0
    2.5420   10.4609   16.8722 C   0  0  0  0  0  0  0  0  0  0  0  0
    2.2313    9.5119   15.9163 C   0  0  0  0  0  0  0  0  0  0  0  0
    3.9070   11.1486   18.7217 O   0  0  0  0  0  0  0  0  0  0  0  0
    4.4704    3.7938   12.4668 N   0  0  0  0  0  0  0  0  0  0  0  0
  1  2  2  0
  2  3  1  0
  3  4  1  0
  4  5  2  0
  4  6  1  0
  6  7  2  0
  7  8  1  0
  8  9  1  0
  9 10  2  0
 10 11  1  0
 11 12  2  0
 12 13  1  0
 13 14  2  0
 11 15  1  0
 15 16  1  0
 16 17  1  0
 17 18  1  0
 18 19  2  0
 19 20  1  0
 20 21  2  0
 21 22  1  0
 22 23  2  0
 21 24  1  0
  9 25  1  0
  5  1  1  0
 14  6  1  0
 13  8  1  0
 23 18  1  0
M  END
$$$$
