
     RDKit          3D

 25 28  0  0  0  0  0  0  0  0999 V2000
    2.5382   -0.2539    6.9630 C   0  0  0  0  0  0  0  0  0  0  0  0
    1.4814    0.4359    6.4072 C   0  0  0  0  0  0  0  0  0  0  0  0
    1.2813    1.4835    7.1398 O   0  0  0  0  0  0  0  0  0  0  0  0
    2.1152    1.5609    8.1481 C   0  0  0  0  0  0  0  0  0  0  0  0
    2.9344    0.4797    8.0790 C   0  0  0  0  0  0  0  0  0  0  0  0
    2.1137    2.6465    9.1400 C   0  0  0  0  0  0  0  0  0  0  0  0
    2.9045    2.7355   10.2388 N   0  0  0  0  0  0  0  0  0  0  0  0
    2.6616    3.8403   10.9201 N   0  0  0  0  0  0  0  0  0  0  0  0
    3.1812    4.3659   12.0608 C   0  0  0  0  0  0  0  0  0  0  0  0
    2.7143    5.5599   12.5311 N   0  0  0  0  0  0  0  0  0  0  0  0
    1.7450    6.2243   11.8783 C   0  0  0  0  0  0  0  0  0  0  0  0
    1.2538    5.6857   10.7638 N   0  0  0  0  0  0  0  0  0  0  0  0
    1.6982    4.4952   10.2677 C   0  0  0  0  0  0  0  0  0  0  0  0
    1.3576    3.7619    9.1686 N   0  0  0  0  0  0  0  0  0  0  0  0
    1.2756    7.4677   12.3639 N   0  0  0  0  0  0  0  0  0  0  0  0
    1.7937    8.1343   13.5337 C   0  0  0  0  0  0  0  0  0  0  0  0
    1.1501    7.6441   14.8090 C   0  0  0  0  0  0  0  0  0  0  0  0
    2.0110    8.1138   15.9283 C   0  0  0  0  0  0  0  0  0  0  0  0
    3.3468    7.7561   16.0174 C   0  0  0  0  0  0  0  0  0  0  0  0
    4.1020    8.2067   17.0739 C   0  0  0  0  0  0  0  0  0  0  0  0
    3.5323    9.0159   18.0484 C   0  0  0  0  0  0  0  0  0  0  0  0
    2.2208    9.3724   17.9691 C   0  0  0  0  0  0  0  0  0  0  0  0
    1.4652    8.9170   16.9049 C   0  0  0  0  0  0  0  0  0  0  0  0
    4.3307    9.4555   19.1085 O   0  0  0  0  0  0  0  0  0  0  0  0
    4.2056    3.6570   12.7326 N   0  0  0  0  0  0  0  0  0  0  0  0
  1  2  2  0
  2  3  1  0
  3  4  1  0
  4  5  2  0
  4  6  1  0
  6  7  2  0
  7  8  1  0
  8  9  1  0
  9 10  2  0
 10 11  1  0
 11 12  2  0
 12 13  1  0
 13 14  2  0
 11 15  1  0
 15 16  1  0
 16 17  1  0
 17 18  1  0
 18 19  2  0
 19 20  1  0
 20 21  2  0
 21 22  1  0
 22 23  2  0
 21 24  1  0
  9 25  1  0
  5  1  1  0
 14  6  1  0
 13  8  1  0
 23 18  1  0
M  END
$$$$
