
     RDKit          3D

 25 28  0  0  0  0  0  0  0  0999 V2000
    6.3849    5.0769   16.0238 C   0  0  0  0  0  0  0  0  0  0  0  0
    6.8189    3.8486   15.5715 C   0  0  0  0  0  0  0  0  0  0  0  0
    6.0488    3.5094   14.5886 O   0  0  0  0  0  0  0  0  0  0  0  0
    5.1268    4.4066   14.3371 C   0  0  0  0  0  0  0  0  0  0  0  0
    5.2990    5.4222   15.2225 C   0  0  0  0  0  0  0  0  0  0  0  0
    4.1177    4.2790   13.2752 C   0  0  0  0  0  0  0  0  0  0  0  0
    3.9835    3.2417   12.4111 N   0  0  0  0  0  0  0  0  0  0  0  0
    2.9710    3.4299   11.5845 N   0  0  0  0  0  0  0  0  0  0  0  0
    2.4481    2.6949   10.5677 C   0  0  0  0  0  0  0  0  0  0  0  0
    1.3670    3.1645    9.8781 N   0  0  0  0  0  0  0  0  0  0  0  0
    0.8115    4.3475   10.1930 C   0  0  0  0  0  0  0  0  0  0  0  0
    1.3448    5.0467   11.1930 N   0  0  0  0  0  0  0  0  0  0  0  0
    2.4241    4.6059   11.9014 C   0  0  0  0  0  0  0  0  0  0  0  0
    3.1287    5.1329   12.9443 N   0  0  0  0  0  0  0  0  0  0  0  0
   -0.3170    4.8216    9.4831 N   0  0  0  0  0  0  0  0  0  0  0  0
   -0.9044    6.1268    9.6634 C   0  0  0  0  0  0  0  0  0  0  0  0
   -0.0502    7.2286    9.0830 C   0  0  0  0  0  0  0  0  0  0  0  0
   -0.7660    8.5063    9.3469 C   0  0  0  0  0  0  0  0  0  0  0  0
   -1.1647    8.8657   10.6245 C   0  0  0  0  0  0  0  0  0  0  0  0
   -1.8310   10.0519   10.8200 C   0  0  0  0  0  0  0  0  0  0  0  0
   -2.1050   10.8878    9.7452 C   0  0  0  0  0  0  0  0  0  0  0  0
   -1.7172   10.5430    8.4865 C   0  0  0  0  0  0  0  0  0  0  0  0
   -1.0473    9.3492    8.2946 C   0  0  0  0  0  0  0  0  0  0  0  0
   -2.7845   12.0865    9.9817 O   0  0  0  0  0  0  0  0  0  0  0  0
    3.0406    1.4487   10.2530 N   0  0  0  0  0  0  0  0  0  0  0  0
  1  2  2  0
  2  3  1  0
  3  4  1  0
  4  5  2  0
  4  6  1  0
  6  7  2  0
  7  8  1  0
  8  9  1  0
  9 10  2  0
 10 11  1  0
 11 12  2  0
 12 13  1  0
 13 14  2  0
 11 15  1  0
 15 16  1  0
 16 17  1  0
 17 18  1  0
 18 19  2  0
 19 20  1  0
 20 21  2  0
 21 22  1  0
 22 23  2  0
 21 24  1  0
  9 25  1  0
  5  1  1  0
 14  6  1  0
 13  8  1  0
 23 18  1  0
M  END
$$$$
