
     RDKit          3D

 25 28  0  0  0  0  0  0  0  0999 V2000
    1.8165    0.4404    6.2514 C   0  0  0  0  0  0  0  0  0  0  0  0
    2.9814    0.0608    6.8841 C   0  0  0  0  0  0  0  0  0  0  0  0
    3.1235    0.8286    7.9159 O   0  0  0  0  0  0  0  0  0  0  0  0
    2.1507    1.6990    8.0350 C   0  0  0  0  0  0  0  0  0  0  0  0
    1.2946    1.4922    7.0010 C   0  0  0  0  0  0  0  0  0  0  0  0
    2.0591    2.6932    9.1146 C   0  0  0  0  0  0  0  0  0  0  0  0
    2.8290    2.7445   10.2305 N   0  0  0  0  0  0  0  0  0  0  0  0
    2.4988    3.7671   10.9980 N   0  0  0  0  0  0  0  0  0  0  0  0
    2.9660    4.2294   12.1878 C   0  0  0  0  0  0  0  0  0  0  0  0
    2.4083    5.3426   12.7488 N   0  0  0  0  0  0  0  0  0  0  0  0
    1.4006    5.9891   12.1375 C   0  0  0  0  0  0  0  0  0  0  0  0
    0.9624    5.5137   10.9733 N   0  0  0  0  0  0  0  0  0  0  0  0
    1.4977    4.4046   10.3865 C   0  0  0  0  0  0  0  0  0  0  0  0
    1.2236    3.7451    9.2239 N   0  0  0  0  0  0  0  0  0  0  0  0
    0.8366    7.1499   12.7179 N   0  0  0  0  0  0  0  0  0  0  0  0
    1.2883    7.7466   13.9512 C   0  0  0  0  0  0  0  0  0  0  0  0
    2.5575    8.5456   13.7742 C   0  0  0  0  0  0  0  0  0  0  0  0
    3.0770    8.8278   15.1399 C   0  0  0  0  0  0  0  0  0  0  0  0
    3.7439   10.0062   15.4348 C   0  0  0  0  0  0  0  0  0  0  0  0
    4.2140   10.2205   16.7085 C   0  0  0  0  0  0  0  0  0  0  0  0
    4.0238    9.2631   17.6966 C   0  0  0  0  0  0  0  0  0  0  0  0
    3.3699    8.1025   17.4161 C   0  0  0  0  0  0  0  0  0  0  0  0
    2.8987    7.8913   16.1338 C   0  0  0  0  0  0  0  0  0  0  0  0
    4.5156    9.5152   18.9808 O   0  0  0  0  0  0  0  0  0  0  0  0
    4.0317    3.5409   12.8152 N   0  0  0  0  0  0  0  0  0  0  0  0
  1  2  2  0
  2  3  1  0
  3  4  1  0
  4  5  2  0
  4  6  1  0
  6  7  2  0
  7  8  1  0
  8  9  1  0
  9 10  2  0
 10 11  1  0
 11 12  2  0
 12 13  1  0
 13 14  2  0
 11 15  1  0
 15 16  1  0
 16 17  1  0
 17 18  1  0
 18 19  2  0
 19 20  1  0
 20 21  2  0
 21 22  1  0
 22 23  2  0
 21 24  1  0
  9 25  1  0
  5  1  1  0
 14  6  1  0
 13  8  1  0
 23 18  1  0
M  END
$$$$
