
     RDKit          3D

 25 28  0  0  0  0  0  0  0  0999 V2000
    1.1985    0.8665    6.5001 C   0  0  0  0  0  0  0  0  0  0  0  0
    2.2349    0.1593    7.0723 C   0  0  0  0  0  0  0  0  0  0  0  0
    2.5894    0.7978    8.1404 O   0  0  0  0  0  0  0  0  0  0  0  0
    1.8789    1.8812    8.3398 C   0  0  0  0  0  0  0  0  0  0  0  0
    0.9813    1.9684    7.3242 C   0  0  0  0  0  0  0  0  0  0  0  0
    2.0677    2.7955    9.4758 C   0  0  0  0  0  0  0  0  0  0  0  0
    3.0015    2.6842   10.4537 N   0  0  0  0  0  0  0  0  0  0  0  0
    2.9110    3.6744   11.3226 N   0  0  0  0  0  0  0  0  0  0  0  0
    3.6055    3.9959   12.4460 C   0  0  0  0  0  0  0  0  0  0  0  0
    3.2699    5.1147   13.1535 N   0  0  0  0  0  0  0  0  0  0  0  0
    2.2590    5.9046   12.7519 C   0  0  0  0  0  0  0  0  0  0  0  0
    1.5955    5.5652   11.6483 N   0  0  0  0  0  0  0  0  0  0  0  0
    1.9056    4.4547   10.9192 C   0  0  0  0  0  0  0  0  0  0  0  0
    1.3827    3.9159    9.7798 N   0  0  0  0  0  0  0  0  0  0  0  0
    1.9256    7.0698   13.4823 N   0  0  0  0  0  0  0  0  0  0  0  0
    0.8225    7.9435   13.1644 C   0  0  0  0  0  0  0  0  0  0  0  0
    0.8329    8.3830   11.7197 C   0  0  0  0  0  0  0  0  0  0  0  0
   -0.0465    9.5803   11.6324 C   0  0  0  0  0  0  0  0  0  0  0  0
   -0.7157   10.0731   12.7413 C   0  0  0  0  0  0  0  0  0  0  0  0
   -1.5244   11.1770   12.6120 C   0  0  0  0  0  0  0  0  0  0  0  0
   -1.6725   11.7972   11.3781 C   0  0  0  0  0  0  0  0  0  0  0  0
   -1.0191   11.3201   10.2832 C   0  0  0  0  0  0  0  0  0  0  0  0
   -0.2068   10.2097   10.4180 C   0  0  0  0  0  0  0  0  0  0  0  0
   -2.5032   12.9177   11.2841 O   0  0  0  0  0  0  0  0  0  0  0  0
    4.6710    3.1573   12.8517 N   0  0  0  0  0  0  0  0  0  0  0  0
  1  2  2  0
  2  3  1  0
  3  4  1  0
  4  5  2  0
  4  6  1  0
  6  7  2  0
  7  8  1  0
  8  9  1  0
  9 10  2  0
 10 11  1  0
 11 12  2  0
 12 13  1  0
 13 14  2  0
 11 15  1  0
 15 16  1  0
 16 17  1  0
 17 18  1  0
 18 19  2  0
 19 20  1  0
 20 21  2  0
 21 22  1  0
 22 23  2  0
 21 24  1  0
  9 25  1  0
  5  1  1  0
 14  6  1  0
 13  8  1  0
 23 18  1  0
M  END
$$$$
