
     RDKit          3D

 25 28  0  0  0  0  0  0  0  0999 V2000
    2.3992    0.1287    6.4384 C   0  0  0  0  0  0  0  0  0  0  0  0
    3.5979   -0.1107    7.0766 C   0  0  0  0  0  0  0  0  0  0  0  0
    3.6693    0.7085    8.0757 O   0  0  0  0  0  0  0  0  0  0  0  0
    2.6173    1.4852    8.1675 C   0  0  0  0  0  0  0  0  0  0  0  0
    1.7811    1.1549    7.1493 C   0  0  0  0  0  0  0  0  0  0  0  0
    2.4345    2.5090    9.2070 C   0  0  0  0  0  0  0  0  0  0  0  0
    3.1948    2.6741   10.3184 N   0  0  0  0  0  0  0  0  0  0  0  0
    2.7722    3.6922   11.0455 N   0  0  0  0  0  0  0  0  0  0  0  0
    3.1938    4.2417   12.2150 C   0  0  0  0  0  0  0  0  0  0  0  0
    2.5367    5.3211   12.7326 N   0  0  0  0  0  0  0  0  0  0  0  0
    1.4755    5.8490   12.0983 C   0  0  0  0  0  0  0  0  0  0  0  0
    1.0839    5.2901   10.9548 N   0  0  0  0  0  0  0  0  0  0  0  0
    1.7184    4.2116   10.4113 C   0  0  0  0  0  0  0  0  0  0  0  0
    1.5069    3.4845    9.2763 N   0  0  0  0  0  0  0  0  0  0  0  0
    0.8078    6.9760   12.6334 N   0  0  0  0  0  0  0  0  0  0  0  0
    1.2301    7.6892   13.8142 C   0  0  0  0  0  0  0  0  0  0  0  0
    2.5581    8.3827   13.6247 C   0  0  0  0  0  0  0  0  0  0  0  0
    3.0637    8.7134   14.9848 C   0  0  0  0  0  0  0  0  0  0  0  0
    2.4570    9.6800   15.7707 C   0  0  0  0  0  0  0  0  0  0  0  0
    2.9637    9.9584   17.0178 C   0  0  0  0  0  0  0  0  0  0  0  0
    4.0777    9.2766   17.4903 C   0  0  0  0  0  0  0  0  0  0  0  0
    4.6804    8.3254   16.7252 C   0  0  0  0  0  0  0  0  0  0  0  0
    4.1673    8.0487   15.4717 C   0  0  0  0  0  0  0  0  0  0  0  0
    4.5653    9.5860   18.7634 O   0  0  0  0  0  0  0  0  0  0  0  0
    4.3165    3.6780   12.8670 N   0  0  0  0  0  0  0  0  0  0  0  0
  1  2  2  0
  2  3  1  0
  3  4  1  0
  4  5  2  0
  4  6  1  0
  6  7  2  0
  7  8  1  0
  8  9  1  0
  9 10  2  0
 10 11  1  0
 11 12  2  0
 12 13  1  0
 13 14  2  0
 11 15  1  0
 15 16  1  0
 16 17  1  0
 17 18  1  0
 18 19  2  0
 19 20  1  0
 20 21  2  0
 21 22  1  0
 22 23  2  0
 21 24  1  0
  9 25  1  0
  5  1  1  0
 14  6  1  0
 13  8  1  0
 23 18  1  0
M  END
$$$$
