
     RDKit          3D

 25 28  0  0  0  0  0  0  0  0999 V2000
    2.0195    0.3308    6.1519 C   0  0  0  0  0  0  0  0  0  0  0  0
    3.1817    0.0077    6.8200 C   0  0  0  0  0  0  0  0  0  0  0  0
    3.2607    0.7884    7.8488 O   0  0  0  0  0  0  0  0  0  0  0  0
    2.2476    1.6158    7.9334 C   0  0  0  0  0  0  0  0  0  0  0  0
    1.4309    1.3639    6.8777 C   0  0  0  0  0  0  0  0  0  0  0  0
    2.0820    2.6127    9.0016 C   0  0  0  0  0  0  0  0  0  0  0  0
    2.8290    2.7176   10.1292 N   0  0  0  0  0  0  0  0  0  0  0  0
    2.4288    3.7266   10.8813 N   0  0  0  0  0  0  0  0  0  0  0  0
    2.8493    4.2251   12.0738 C   0  0  0  0  0  0  0  0  0  0  0  0
    2.2203    5.3098   12.6148 N   0  0  0  0  0  0  0  0  0  0  0  0
    1.1879    5.8928   11.9811 C   0  0  0  0  0  0  0  0  0  0  0  0
    0.7967    5.3829   10.8147 N   0  0  0  0  0  0  0  0  0  0  0  0
    1.4036    4.3008   10.2475 C   0  0  0  0  0  0  0  0  0  0  0  0
    1.1866    3.6166    9.0871 N   0  0  0  0  0  0  0  0  0  0  0  0
    0.5496    7.0248   12.5409 N   0  0  0  0  0  0  0  0  0  0  0  0
    0.9699    7.6804   13.7552 C   0  0  0  0  0  0  0  0  0  0  0  0
    2.1476    8.6000   13.5359 C   0  0  0  0  0  0  0  0  0  0  0  0
    2.8441    8.7197   14.8456 C   0  0  0  0  0  0  0  0  0  0  0  0
    2.7396    9.8622   15.6228 C   0  0  0  0  0  0  0  0  0  0  0  0
    3.4075    9.9317   16.8221 C   0  0  0  0  0  0  0  0  0  0  0  0
    4.1840    8.8647   17.2553 C   0  0  0  0  0  0  0  0  0  0  0  0
    4.2927    7.7383   16.4984 C   0  0  0  0  0  0  0  0  0  0  0  0
    3.6191    7.6728   15.2930 C   0  0  0  0  0  0  0  0  0  0  0  0
    4.8491    8.9707   18.4804 O   0  0  0  0  0  0  0  0  0  0  0  0
    3.9416    3.6038   12.7250 N   0  0  0  0  0  0  0  0  0  0  0  0
  1  2  2  0
  2  3  1  0
  3  4  1  0
  4  5  2  0
  4  6  1  0
  6  7  2  0
  7  8  1  0
  8  9  1  0
  9 10  2  0
 10 11  1  0
 11 12  2  0
 12 13  1  0
 13 14  2  0
 11 15  1  0
 15 16  1  0
 16 17  1  0
 17 18  1  0
 18 19  2  0
 19 20  1  0
 20 21  2  0
 21 22  1  0
 22 23  2  0
 21 24  1  0
  9 25  1  0
  5  1  1  0
 14  6  1  0
 13  8  1  0
 23 18  1  0
M  END
$$$$
