
     RDKit          3D

 25 28  0  0  0  0  0  0  0  0999 V2000
    3.2385   -0.2513    7.0667 C   0  0  0  0  0  0  0  0  0  0  0  0
    1.9218   -0.1773    6.6640 C   0  0  0  0  0  0  0  0  0  0  0  0
    1.4151    0.8825    7.2065 O   0  0  0  0  0  0  0  0  0  0  0  0
    2.2801    1.5338    7.9454 C   0  0  0  0  0  0  0  0  0  0  0  0
    3.4540    0.8530    7.8882 C   0  0  0  0  0  0  0  0  0  0  0  0
    1.9742    2.7714    8.6782 C   0  0  0  0  0  0  0  0  0  0  0  0
    0.8293    3.4947    8.5963 N   0  0  0  0  0  0  0  0  0  0  0  0
    0.8666    4.5490    9.3907 N   0  0  0  0  0  0  0  0  0  0  0  0
   -0.0148    5.5494    9.6546 C   0  0  0  0  0  0  0  0  0  0  0  0
    0.3160    6.5255   10.5507 N   0  0  0  0  0  0  0  0  0  0  0  0
    1.5053    6.5092   11.1771 C   0  0  0  0  0  0  0  0  0  0  0  0
    2.3495    5.5176   10.8988 N   0  0  0  0  0  0  0  0  0  0  0  0
    2.0496    4.5278   10.0092 C   0  0  0  0  0  0  0  0  0  0  0  0
    2.7359    3.4324    9.5724 N   0  0  0  0  0  0  0  0  0  0  0  0
    1.8360    7.5162   12.1146 N   0  0  0  0  0  0  0  0  0  0  0  0
    2.9997    7.4865   12.9666 C   0  0  0  0  0  0  0  0  0  0  0  0
    2.6410    7.5054   14.4334 C   0  0  0  0  0  0  0  0  0  0  0  0
    3.8076    6.9402   15.1644 C   0  0  0  0  0  0  0  0  0  0  0  0
    3.8138    6.8252   16.5453 C   0  0  0  0  0  0  0  0  0  0  0  0
    4.9170    6.3048   17.1789 C   0  0  0  0  0  0  0  0  0  0  0  0
    6.0211    5.8959   16.4421 C   0  0  0  0  0  0  0  0  0  0  0  0
    6.0240    6.0053   15.0851 C   0  0  0  0  0  0  0  0  0  0  0  0
    4.9123    6.5291   14.4522 C   0  0  0  0  0  0  0  0  0  0  0  0
    7.1254    5.3714   17.1203 O   0  0  0  0  0  0  0  0  0  0  0  0
   -1.2652    5.5485    8.9915 N   0  0  0  0  0  0  0  0  0  0  0  0
  1  2  2  0
  2  3  1  0
  3  4  1  0
  4  5  2  0
  4  6  1  0
  6  7  2  0
  7  8  1  0
  8  9  1  0
  9 10  2  0
 10 11  1  0
 11 12  2  0
 12 13  1  0
 13 14  2  0
 11 15  1  0
 15 16  1  0
 16 17  1  0
 17 18  1  0
 18 19  2  0
 19 20  1  0
 20 21  2  0
 21 22  1  0
 22 23  2  0
 21 24  1  0
  9 25  1  0
  5  1  1  0
 14  6  1  0
 13  8  1  0
 23 18  1  0
M  END
$$$$
