
     RDKit          3D

 25 28  0  0  0  0  0  0  0  0999 V2000
    2.5552    0.7503    6.6670 C   0  0  0  0  0  0  0  0  0  0  0  0
    1.5375    1.5992    6.2857 C   0  0  0  0  0  0  0  0  0  0  0  0
    1.3556    2.4371    7.2547 O   0  0  0  0  0  0  0  0  0  0  0  0
    2.1660    2.2261    8.2632 C   0  0  0  0  0  0  0  0  0  0  0  0
    2.9484    1.1646    7.9375 C   0  0  0  0  0  0  0  0  0  0  0  0
    2.1774    3.0278    9.4958 C   0  0  0  0  0  0  0  0  0  0  0  0
    3.0320    2.8885   10.5402 N   0  0  0  0  0  0  0  0  0  0  0  0
    2.7819    3.7715   11.4897 N   0  0  0  0  0  0  0  0  0  0  0  0
    3.3484    4.0269   12.6985 C   0  0  0  0  0  0  0  0  0  0  0  0
    2.8573    5.0350   13.4779 N   0  0  0  0  0  0  0  0  0  0  0  0
    1.8181    5.7804   13.0637 C   0  0  0  0  0  0  0  0  0  0  0  0
    1.2822    5.5075   11.8755 N   0  0  0  0  0  0  0  0  0  0  0  0
    1.7490    4.5079   11.0732 C   0  0  0  0  0  0  0  0  0  0  0  0
    1.3733    4.0523    9.8431 N   0  0  0  0  0  0  0  0  0  0  0  0
    1.3231    6.8322   13.8704 N   0  0  0  0  0  0  0  0  0  0  0  0
    0.8790    8.1081   13.3645 C   0  0  0  0  0  0  0  0  0  0  0  0
    2.0131    9.0932   13.2094 C   0  0  0  0  0  0  0  0  0  0  0  0
    1.4123   10.3584   12.7065 C   0  0  0  0  0  0  0  0  0  0  0  0
    0.0689   10.4448   12.3776 C   0  0  0  0  0  0  0  0  0  0  0  0
   -0.4409   11.6321   11.9087 C   0  0  0  0  0  0  0  0  0  0  0  0
    0.3831   12.7407   11.7638 C   0  0  0  0  0  0  0  0  0  0  0  0
    1.7041   12.6651   12.0843 C   0  0  0  0  0  0  0  0  0  0  0  0
    2.2125   11.4692   12.5556 C   0  0  0  0  0  0  0  0  0  0  0  0
   -0.1701   13.9316   11.2840 O   0  0  0  0  0  0  0  0  0  0  0  0
    4.4459    3.2373   13.1171 N   0  0  0  0  0  0  0  0  0  0  0  0
  1  2  2  0
  2  3  1  0
  3  4  1  0
  4  5  2  0
  4  6  1  0
  6  7  2  0
  7  8  1  0
  8  9  1  0
  9 10  2  0
 10 11  1  0
 11 12  2  0
 12 13  1  0
 13 14  2  0
 11 15  1  0
 15 16  1  0
 16 17  1  0
 17 18  1  0
 18 19  2  0
 19 20  1  0
 20 21  2  0
 21 22  1  0
 22 23  2  0
 21 24  1  0
  9 25  1  0
  5  1  1  0
 14  6  1  0
 13  8  1  0
 23 18  1  0
M  END
$$$$
