
     RDKit          3D

 25 28  0  0  0  0  0  0  0  0999 V2000
    1.4102   -0.0978    6.8192 C   0  0  0  0  0  0  0  0  0  0  0  0
    2.6685   -0.3578    7.3198 C   0  0  0  0  0  0  0  0  0  0  0  0
    2.9063    0.5265    8.2339 O   0  0  0  0  0  0  0  0  0  0  0  0
    1.9126    1.3662    8.3944 C   0  0  0  0  0  0  0  0  0  0  0  0
    0.9377    1.0107    7.5180 C   0  0  0  0  0  0  0  0  0  0  0  0
    1.9134    2.4716    9.3640 C   0  0  0  0  0  0  0  0  0  0  0  0
    2.7998    2.6571   10.3742 N   0  0  0  0  0  0  0  0  0  0  0  0
    2.5283    3.7528   11.0595 N   0  0  0  0  0  0  0  0  0  0  0  0
    3.1110    4.3502   12.1324 C   0  0  0  0  0  0  0  0  0  0  0  0
    2.5882    5.5097   12.6295 N   0  0  0  0  0  0  0  0  0  0  0  0
    1.5020    6.0698   12.0695 C   0  0  0  0  0  0  0  0  0  0  0  0
    0.9514    5.4626   11.0199 N   0  0  0  0  0  0  0  0  0  0  0  0
    1.4489    4.3039   10.4995 C   0  0  0  0  0  0  0  0  0  0  0  0
    1.0666    3.5164    9.4528 N   0  0  0  0  0  0  0  0  0  0  0  0
    0.9739    7.2787   12.5812 N   0  0  0  0  0  0  0  0  0  0  0  0
    1.5990    8.0691   13.6134 C   0  0  0  0  0  0  0  0  0  0  0  0
    1.2819    7.5615   14.9999 C   0  0  0  0  0  0  0  0  0  0  0  0
    2.3506    8.0782   15.8974 C   0  0  0  0  0  0  0  0  0  0  0  0
    3.6934    7.8846   15.6152 C   0  0  0  0  0  0  0  0  0  0  0  0
    4.6463    8.3724   16.4774 C   0  0  0  0  0  0  0  0  0  0  0  0
    4.2687    9.0557   17.6261 C   0  0  0  0  0  0  0  0  0  0  0  0
    2.9520    9.2507   17.9116 C   0  0  0  0  0  0  0  0  0  0  0  0
    1.9972    8.7584   17.0416 C   0  0  0  0  0  0  0  0  0  0  0  0
    5.2653    9.5377   18.4799 O   0  0  0  0  0  0  0  0  0  0  0  0
    4.2577    3.7511   12.7064 N   0  0  0  0  0  0  0  0  0  0  0  0
  1  2  2  0
  2  3  1  0
  3  4  1  0
  4  5  2  0
  4  6  1  0
  6  7  2  0
  7  8  1  0
  8  9  1  0
  9 10  2  0
 10 11  1  0
 11 12  2  0
 12 13  1  0
 13 14  2  0
 11 15  1  0
 15 16  1  0
 16 17  1  0
 17 18  1  0
 18 19  2  0
 19 20  1  0
 20 21  2  0
 21 22  1  0
 22 23  2  0
 21 24  1  0
  9 25  1  0
  5  1  1  0
 14  6  1  0
 13  8  1  0
 23 18  1  0
M  END
$$$$
