
     RDKit          3D

 25 28  0  0  0  0  0  0  0  0999 V2000
    2.6588   -0.2513    7.1672 C   0  0  0  0  0  0  0  0  0  0  0  0
    1.5490    0.3358    6.5970 C   0  0  0  0  0  0  0  0  0  0  0  0
    1.2900    1.4051    7.2779 O   0  0  0  0  0  0  0  0  0  0  0  0
    2.1328    1.5916    8.2644 C   0  0  0  0  0  0  0  0  0  0  0  0
    3.0221    0.5653    8.2356 C   0  0  0  0  0  0  0  0  0  0  0  0
    2.0736    2.7258    9.1984 C   0  0  0  0  0  0  0  0  0  0  0  0
    2.8566    2.9124   10.2905 N   0  0  0  0  0  0  0  0  0  0  0  0
    2.5560    4.0373   10.9135 N   0  0  0  0  0  0  0  0  0  0  0  0
    3.0457    4.6475   12.0249 C   0  0  0  0  0  0  0  0  0  0  0  0
    2.5171    5.8388   12.4328 N   0  0  0  0  0  0  0  0  0  0  0  0
    1.5162    6.4176   11.7470 C   0  0  0  0  0  0  0  0  0  0  0  0
    1.0555    5.7972   10.6624 N   0  0  0  0  0  0  0  0  0  0  0  0
    1.5615    4.6069   10.2287 C   0  0  0  0  0  0  0  0  0  0  0  0
    1.2611    3.8008    9.1695 N   0  0  0  0  0  0  0  0  0  0  0  0
    0.9825    7.6588   12.1675 N   0  0  0  0  0  0  0  0  0  0  0  0
    1.4288    8.3860   13.3308 C   0  0  0  0  0  0  0  0  0  0  0  0
    0.9076    7.7912   14.6174 C   0  0  0  0  0  0  0  0  0  0  0  0
    1.9019    8.1235   15.6736 C   0  0  0  0  0  0  0  0  0  0  0  0
    2.8281    7.1936   16.1184 C   0  0  0  0  0  0  0  0  0  0  0  0
    3.7224    7.5422   17.1023 C   0  0  0  0  0  0  0  0  0  0  0  0
    3.7004    8.8184   17.6498 C   0  0  0  0  0  0  0  0  0  0  0  0
    2.7941    9.7385   17.2192 C   0  0  0  0  0  0  0  0  0  0  0  0
    1.8967    9.3835   16.2295 C   0  0  0  0  0  0  0  0  0  0  0  0
    4.6250    9.1376   18.6487 O   0  0  0  0  0  0  0  0  0  0  0  0
    4.1038    4.0282   12.7320 N   0  0  0  0  0  0  0  0  0  0  0  0
  1  2  2  0
  2  3  1  0
  3  4  1  0
  4  5  2  0
  4  6  1  0
  6  7  2  0
  7  8  1  0
  8  9  1  0
  9 10  2  0
 10 11  1  0
 11 12  2  0
 12 13  1  0
 13 14  2  0
 11 15  1  0
 15 16  1  0
 16 17  1  0
 17 18  1  0
 18 19  2  0
 19 20  1  0
 20 21  2  0
 21 22  1  0
 22 23  2  0
 21 24  1  0
  9 25  1  0
  5  1  1  0
 14  6  1  0
 13  8  1  0
 23 18  1  0
M  END
$$$$
