
     RDKit          3D

 25 28  0  0  0  0  0  0  0  0999 V2000
    1.6596    0.1828    6.4588 C   0  0  0  0  0  0  0  0  0  0  0  0
    2.8641   -0.1234    7.0563 C   0  0  0  0  0  0  0  0  0  0  0  0
    3.0202    0.6975    8.0443 O   0  0  0  0  0  0  0  0  0  0  0  0
    2.0205    1.5367    8.1658 C   0  0  0  0  0  0  0  0  0  0  0  0
    1.1299    1.2495    7.1813 C   0  0  0  0  0  0  0  0  0  0  0  0
    1.9366    2.5774    9.2012 C   0  0  0  0  0  0  0  0  0  0  0  0
    2.7104    2.6741   10.3115 N   0  0  0  0  0  0  0  0  0  0  0  0
    2.3870    3.7307   11.0346 N   0  0  0  0  0  0  0  0  0  0  0  0
    2.8601    4.2424   12.2016 C   0  0  0  0  0  0  0  0  0  0  0  0
    2.3089    5.3814   12.7152 N   0  0  0  0  0  0  0  0  0  0  0  0
    1.3018    6.0050   12.0795 C   0  0  0  0  0  0  0  0  0  0  0  0
    0.8578    5.4811   10.9385 N   0  0  0  0  0  0  0  0  0  0  0  0
    1.3866    4.3451   10.3990 C   0  0  0  0  0  0  0  0  0  0  0  0
    1.1059    3.6367    9.2671 N   0  0  0  0  0  0  0  0  0  0  0  0
    0.7446    7.1924   12.6103 N   0  0  0  0  0  0  0  0  0  0  0  0
    1.0920    7.7534   13.8932 C   0  0  0  0  0  0  0  0  0  0  0  0
    2.4466    8.4211   13.8827 C   0  0  0  0  0  0  0  0  0  0  0  0
    2.7307    8.8299   15.2851 C   0  0  0  0  0  0  0  0  0  0  0  0
    3.8867    9.5156   15.6223 C   0  0  0  0  0  0  0  0  0  0  0  0
    4.1115    9.8657   16.9324 C   0  0  0  0  0  0  0  0  0  0  0  0
    3.1873    9.5351   17.9151 C   0  0  0  0  0  0  0  0  0  0  0  0
    2.0489    8.8615   17.5932 C   0  0  0  0  0  0  0  0  0  0  0  0
    1.8270    8.5116   16.2744 C   0  0  0  0  0  0  0  0  0  0  0  0
    3.4492    9.9074   19.2370 O   0  0  0  0  0  0  0  0  0  0  0  0
    3.9249    3.5774   12.8551 N   0  0  0  0  0  0  0  0  0  0  0  0
  1  2  2  0
  2  3  1  0
  3  4  1  0
  4  5  2  0
  4  6  1  0
  6  7  2  0
  7  8  1  0
  8  9  1  0
  9 10  2  0
 10 11  1  0
 11 12  2  0
 12 13  1  0
 13 14  2  0
 11 15  1  0
 15 16  1  0
 16 17  1  0
 17 18  1  0
 18 19  2  0
 19 20  1  0
 20 21  2  0
 21 22  1  0
 22 23  2  0
 21 24  1  0
  9 25  1  0
  5  1  1  0
 14  6  1  0
 13  8  1  0
 23 18  1  0
M  END
$$$$
