
     RDKit          3D

 25 28  0  0  0  0  0  0  0  0999 V2000
    1.7841    0.1478    6.6853 C   0  0  0  0  0  0  0  0  0  0  0  0
    3.0274   -0.0402    7.2513 C   0  0  0  0  0  0  0  0  0  0  0  0
    3.1638    0.8516    8.1789 O   0  0  0  0  0  0  0  0  0  0  0  0
    2.1150    1.6303    8.2884 C   0  0  0  0  0  0  0  0  0  0  0  0
    1.2105    1.2227    7.3608 C   0  0  0  0  0  0  0  0  0  0  0  0
    1.9992    2.7284    9.2594 C   0  0  0  0  0  0  0  0  0  0  0  0
    2.8224    2.9642   10.3117 N   0  0  0  0  0  0  0  0  0  0  0  0
    2.4495    4.0370   10.9854 N   0  0  0  0  0  0  0  0  0  0  0  0
    2.9409    4.6643   12.0866 C   0  0  0  0  0  0  0  0  0  0  0  0
    2.3224    5.7859   12.5603 N   0  0  0  0  0  0  0  0  0  0  0  0
    1.2311    6.2792   11.9497 C   0  0  0  0  0  0  0  0  0  0  0  0
    0.7712    5.6440   10.8734 N   0  0  0  0  0  0  0  0  0  0  0  0
    1.3656    4.5218   10.3751 C   0  0  0  0  0  0  0  0  0  0  0  0
    1.0846    3.7172    9.3094 N   0  0  0  0  0  0  0  0  0  0  0  0
    0.6035    7.4497   12.4379 N   0  0  0  0  0  0  0  0  0  0  0  0
    1.1227    8.2679   13.5066 C   0  0  0  0  0  0  0  0  0  0  0  0
    0.9146    7.6420   14.8651 C   0  0  0  0  0  0  0  0  0  0  0  0
    1.8480    8.3295   15.7982 C   0  0  0  0  0  0  0  0  0  0  0  0
    1.9021    9.7115   15.8853 C   0  0  0  0  0  0  0  0  0  0  0  0
    2.7862   10.3035   16.7555 C   0  0  0  0  0  0  0  0  0  0  0  0
    3.6222    9.5238   17.5442 C   0  0  0  0  0  0  0  0  0  0  0  0
    3.5762    8.1655   17.4654 C   0  0  0  0  0  0  0  0  0  0  0  0
    2.6855    7.5745   16.5890 C   0  0  0  0  0  0  0  0  0  0  0  0
    4.5087   10.1605   18.4179 O   0  0  0  0  0  0  0  0  0  0  0  0
    4.0942    4.1359   12.7140 N   0  0  0  0  0  0  0  0  0  0  0  0
  1  2  2  0
  2  3  1  0
  3  4  1  0
  4  5  2  0
  4  6  1  0
  6  7  2  0
  7  8  1  0
  8  9  1  0
  9 10  2  0
 10 11  1  0
 11 12  2  0
 12 13  1  0
 13 14  2  0
 11 15  1  0
 15 16  1  0
 16 17  1  0
 17 18  1  0
 18 19  2  0
 19 20  1  0
 20 21  2  0
 21 22  1  0
 22 23  2  0
 21 24  1  0
  9 25  1  0
  5  1  1  0
 14  6  1  0
 13  8  1  0
 23 18  1  0
M  END
$$$$
