
     RDKit          3D

 25 28  0  0  0  0  0  0  0  0999 V2000
    2.4401    0.0390    6.3958 C   0  0  0  0  0  0  0  0  0  0  0  0
    3.6124   -0.2217    7.0735 C   0  0  0  0  0  0  0  0  0  0  0  0
    3.6649    0.5961    8.0748 O   0  0  0  0  0  0  0  0  0  0  0  0
    2.6244    1.3914    8.1318 C   0  0  0  0  0  0  0  0  0  0  0  0
    1.8170    1.0760    7.0862 C   0  0  0  0  0  0  0  0  0  0  0  0
    2.4252    2.4184    9.1652 C   0  0  0  0  0  0  0  0  0  0  0  0
    3.1520    2.5713   10.3005 N   0  0  0  0  0  0  0  0  0  0  0  0
    2.7231    3.5964   11.0139 N   0  0  0  0  0  0  0  0  0  0  0  0
    3.1159    4.1392   12.1965 C   0  0  0  0  0  0  0  0  0  0  0  0
    2.4604    5.2295   12.6930 N   0  0  0  0  0  0  0  0  0  0  0  0
    1.4289    5.7746   12.0251 C   0  0  0  0  0  0  0  0  0  0  0  0
    1.0651    5.2218   10.8695 N   0  0  0  0  0  0  0  0  0  0  0  0
    1.6989    4.1329   10.3464 C   0  0  0  0  0  0  0  0  0  0  0  0
    1.5120    3.4090    9.2049 N   0  0  0  0  0  0  0  0  0  0  0  0
    0.7630    6.9125   12.5388 N   0  0  0  0  0  0  0  0  0  0  0  0
    1.1545    7.6148   13.7365 C   0  0  0  0  0  0  0  0  0  0  0  0
    2.4169    8.4213   13.5454 C   0  0  0  0  0  0  0  0  0  0  0  0
    3.0455    8.5530   14.8878 C   0  0  0  0  0  0  0  0  0  0  0  0
    4.1736    7.8276   15.2365 C   0  0  0  0  0  0  0  0  0  0  0  0
    4.7154    7.9750   16.4911 C   0  0  0  0  0  0  0  0  0  0  0  0
    4.1376    8.8450   17.4067 C   0  0  0  0  0  0  0  0  0  0  0  0
    3.0292    9.5616   17.0731 C   0  0  0  0  0  0  0  0  0  0  0  0
    2.4878    9.4103   15.8102 C   0  0  0  0  0  0  0  0  0  0  0  0
    4.7158    8.9693   18.6735 O   0  0  0  0  0  0  0  0  0  0  0  0
    4.2077    3.5573   12.8840 N   0  0  0  0  0  0  0  0  0  0  0  0
  1  2  2  0
  2  3  1  0
  3  4  1  0
  4  5  2  0
  4  6  1  0
  6  7  2  0
  7  8  1  0
  8  9  1  0
  9 10  2  0
 10 11  1  0
 11 12  2  0
 12 13  1  0
 13 14  2  0
 11 15  1  0
 15 16  1  0
 16 17  1  0
 17 18  1  0
 18 19  2  0
 19 20  1  0
 20 21  2  0
 21 22  1  0
 22 23  2  0
 21 24  1  0
  9 25  1  0
  5  1  1  0
 14  6  1  0
 13  8  1  0
 23 18  1  0
M  END
$$$$
