
     RDKit          3D

 25 28  0  0  0  0  0  0  0  0999 V2000
    2.0068    0.3270    6.3941 C   0  0  0  0  0  0  0  0  0  0  0  0
    3.2398    0.0828    6.9611 C   0  0  0  0  0  0  0  0  0  0  0  0
    3.3992    0.9431    7.9144 O   0  0  0  0  0  0  0  0  0  0  0  0
    2.3756    1.7521    8.0404 C   0  0  0  0  0  0  0  0  0  0  0  0
    1.4641    1.4005    7.0967 C   0  0  0  0  0  0  0  0  0  0  0  0
    2.2893    2.8256    9.0416 C   0  0  0  0  0  0  0  0  0  0  0  0
    3.1141    3.0056   10.1036 N   0  0  0  0  0  0  0  0  0  0  0  0
    2.7716    4.0702   10.8058 N   0  0  0  0  0  0  0  0  0  0  0  0
    3.2767    4.6505   11.9263 C   0  0  0  0  0  0  0  0  0  0  0  0
    2.6914    5.7773   12.4289 N   0  0  0  0  0  0  0  0  0  0  0  0
    1.6193    6.3217   11.8278 C   0  0  0  0  0  0  0  0  0  0  0  0
    1.1452    5.7319   10.7321 N   0  0  0  0  0  0  0  0  0  0  0  0
    1.7066    4.6059   10.2048 C   0  0  0  0  0  0  0  0  0  0  0  0
    1.4060    3.8409    9.1156 N   0  0  0  0  0  0  0  0  0  0  0  0
    1.0262    7.4972   12.3463 N   0  0  0  0  0  0  0  0  0  0  0  0
    1.6195    8.3285   13.3653 C   0  0  0  0  0  0  0  0  0  0  0  0
    1.0334    8.0707   14.7330 C   0  0  0  0  0  0  0  0  0  0  0  0
    2.1186    8.3315   15.7174 C   0  0  0  0  0  0  0  0  0  0  0  0
    2.6253    9.6052   15.9203 C   0  0  0  0  0  0  0  0  0  0  0  0
    3.6339    9.7978   16.8341 C   0  0  0  0  0  0  0  0  0  0  0  0
    4.1447    8.7237   17.5515 C   0  0  0  0  0  0  0  0  0  0  0  0
    3.6532    7.4689   17.3587 C   0  0  0  0  0  0  0  0  0  0  0  0
    2.6388    7.2800   16.4388 C   0  0  0  0  0  0  0  0  0  0  0  0
    5.1702    8.9571   18.4725 O   0  0  0  0  0  0  0  0  0  0  0  0
    4.4097    4.0685   12.5434 N   0  0  0  0  0  0  0  0  0  0  0  0
  1  2  2  0
  2  3  1  0
  3  4  1  0
  4  5  2  0
  4  6  1  0
  6  7  2  0
  7  8  1  0
  8  9  1  0
  9 10  2  0
 10 11  1  0
 11 12  2  0
 12 13  1  0
 13 14  2  0
 11 15  1  0
 15 16  1  0
 16 17  1  0
 17 18  1  0
 18 19  2  0
 19 20  1  0
 20 21  2  0
 21 22  1  0
 22 23  2  0
 21 24  1  0
  9 25  1  0
  5  1  1  0
 14  6  1  0
 13  8  1  0
 23 18  1  0
M  END
$$$$
