
     RDKit          3D

 25 28  0  0  0  0  0  0  0  0999 V2000
    2.7144   -0.0284    6.8681 C   0  0  0  0  0  0  0  0  0  0  0  0
    1.7277    0.7076    6.2465 C   0  0  0  0  0  0  0  0  0  0  0  0
    1.5039    1.7467    6.9843 O   0  0  0  0  0  0  0  0  0  0  0  0
    2.2574    1.7760    8.0566 C   0  0  0  0  0  0  0  0  0  0  0  0
    3.0443    0.6692    8.0279 C   0  0  0  0  0  0  0  0  0  0  0  0
    2.2122    2.8412    9.0693 C   0  0  0  0  0  0  0  0  0  0  0  0
    3.0050    2.9457   10.1652 N   0  0  0  0  0  0  0  0  0  0  0  0
    2.7158    4.0249   10.8691 N   0  0  0  0  0  0  0  0  0  0  0  0
    3.2180    4.5521   12.0169 C   0  0  0  0  0  0  0  0  0  0  0  0
    2.6995    5.7141   12.5128 N   0  0  0  0  0  0  0  0  0  0  0  0
    1.6964    6.3453   11.8783 C   0  0  0  0  0  0  0  0  0  0  0  0
    1.2234    5.8059   10.7564 N   0  0  0  0  0  0  0  0  0  0  0  0
    1.7191    4.6469   10.2349 C   0  0  0  0  0  0  0  0  0  0  0  0
    1.4056    3.9197    9.1237 N   0  0  0  0  0  0  0  0  0  0  0  0
    1.1733    7.5561   12.3905 N   0  0  0  0  0  0  0  0  0  0  0  0
    1.6886    8.2406   13.5511 C   0  0  0  0  0  0  0  0  0  0  0  0
    1.6615    7.3764   14.7893 C   0  0  0  0  0  0  0  0  0  0  0  0
    2.5409    8.0391   15.7905 C   0  0  0  0  0  0  0  0  0  0  0  0
    2.9772    9.3438   15.6241 C   0  0  0  0  0  0  0  0  0  0  0  0
    3.7956    9.9126   16.5707 C   0  0  0  0  0  0  0  0  0  0  0  0
    4.1851    9.1864   17.6887 C   0  0  0  0  0  0  0  0  0  0  0  0
    3.7614    7.9040   17.8605 C   0  0  0  0  0  0  0  0  0  0  0  0
    2.9384    7.3361   16.9060 C   0  0  0  0  0  0  0  0  0  0  0  0
    5.0180    9.7973   18.6308 O   0  0  0  0  0  0  0  0  0  0  0  0
    4.2783    3.8787   12.6691 N   0  0  0  0  0  0  0  0  0  0  0  0
  1  2  2  0
  2  3  1  0
  3  4  1  0
  4  5  2  0
  4  6  1  0
  6  7  2  0
  7  8  1  0
  8  9  1  0
  9 10  2  0
 10 11  1  0
 11 12  2  0
 12 13  1  0
 13 14  2  0
 11 15  1  0
 15 16  1  0
 16 17  1  0
 17 18  1  0
 18 19  2  0
 19 20  1  0
 20 21  2  0
 21 22  1  0
 22 23  2  0
 21 24  1  0
  9 25  1  0
  5  1  1  0
 14  6  1  0
 13  8  1  0
 23 18  1  0
M  END
$$$$
