
     RDKit          3D

 25 28  0  0  0  0  0  0  0  0999 V2000
    6.4139    5.0247   15.3554 C   0  0  0  0  0  0  0  0  0  0  0  0
    5.8096    6.2024   15.7420 C   0  0  0  0  0  0  0  0  0  0  0  0
    4.7726    6.3661   14.9857 O   0  0  0  0  0  0  0  0  0  0  0  0
    4.6238    5.3962   14.1165 C   0  0  0  0  0  0  0  0  0  0  0  0
    5.6421    4.5188   14.3119 C   0  0  0  0  0  0  0  0  0  0  0  0
    3.5317    5.3274   13.1343 C   0  0  0  0  0  0  0  0  0  0  0  0
    2.5243    6.2237   12.9848 N   0  0  0  0  0  0  0  0  0  0  0  0
    1.7105    5.8762   12.0046 N   0  0  0  0  0  0  0  0  0  0  0  0
    0.5867    6.4352   11.4830 C   0  0  0  0  0  0  0  0  0  0  0  0
   -0.0527    5.8260   10.4414 N   0  0  0  0  0  0  0  0  0  0  0  0
    0.4165    4.6776    9.9236 C   0  0  0  0  0  0  0  0  0  0  0  0
    1.5188    4.1521   10.4547 N   0  0  0  0  0  0  0  0  0  0  0  0
    2.1809    4.7354   11.4951 C   0  0  0  0  0  0  0  0  0  0  0  0
    3.3048    4.3935   12.1893 N   0  0  0  0  0  0  0  0  0  0  0  0
   -0.2434    4.0591    8.8354 N   0  0  0  0  0  0  0  0  0  0  0  0
    0.2165    2.8604    8.1777 C   0  0  0  0  0  0  0  0  0  0  0  0
    1.5534    3.0505    7.5015 C   0  0  0  0  0  0  0  0  0  0  0  0
    2.0132    1.6995    7.0796 C   0  0  0  0  0  0  0  0  0  0  0  0
    1.1627    0.8067    6.4474 C   0  0  0  0  0  0  0  0  0  0  0  0
    1.6286   -0.4341    6.0831 C   0  0  0  0  0  0  0  0  0  0  0  0
    2.9440   -0.7942    6.3460 C   0  0  0  0  0  0  0  0  0  0  0  0
    3.7868    0.0763    6.9667 C   0  0  0  0  0  0  0  0  0  0  0  0
    3.3139    1.3230    7.3312 C   0  0  0  0  0  0  0  0  0  0  0  0
    3.3832   -2.0644    5.9611 O   0  0  0  0  0  0  0  0  0  0  0  0
    0.1094    7.6477   12.0354 N   0  0  0  0  0  0  0  0  0  0  0  0
  1  2  2  0
  2  3  1  0
  3  4  1  0
  4  5  2  0
  4  6  1  0
  6  7  2  0
  7  8  1  0
  8  9  1  0
  9 10  2  0
 10 11  1  0
 11 12  2  0
 12 13  1  0
 13 14  2  0
 11 15  1  0
 15 16  1  0
 16 17  1  0
 17 18  1  0
 18 19  2  0
 19 20  1  0
 20 21  2  0
 21 22  1  0
 22 23  2  0
 21 24  1  0
  9 25  1  0
  5  1  1  0
 14  6  1  0
 13  8  1  0
 23 18  1  0
M  END
$$$$
