
     RDKit          3D

 25 28  0  0  0  0  0  0  0  0999 V2000
    3.3477   -0.2557    7.3426 C   0  0  0  0  0  0  0  0  0  0  0  0
    2.3566    0.1340    6.4666 C   0  0  0  0  0  0  0  0  0  0  0  0
    1.8612    1.2408    6.9179 O   0  0  0  0  0  0  0  0  0  0  0  0
    2.4343    1.6341    8.0292 C   0  0  0  0  0  0  0  0  0  0  0  0
    3.3861    0.7162    8.3398 C   0  0  0  0  0  0  0  0  0  0  0  0
    2.0686    2.8568    8.7596 C   0  0  0  0  0  0  0  0  0  0  0  0
    1.0754    3.7226    8.4359 N   0  0  0  0  0  0  0  0  0  0  0  0
    1.0006    4.7169    9.3017 N   0  0  0  0  0  0  0  0  0  0  0  0
    0.1915    5.8041    9.4056 C   0  0  0  0  0  0  0  0  0  0  0  0
    0.3602    6.6781   10.4413 N   0  0  0  0  0  0  0  0  0  0  0  0
    1.3184    6.4761   11.3622 C   0  0  0  0  0  0  0  0  0  0  0  0
    2.0969    5.4031   11.2352 N   0  0  0  0  0  0  0  0  0  0  0  0
    1.9545    4.5113   10.2128 C   0  0  0  0  0  0  0  0  0  0  0  0
    2.6156    3.3644    9.8820 N   0  0  0  0  0  0  0  0  0  0  0  0
    1.4786    7.3784   12.4404 N   0  0  0  0  0  0  0  0  0  0  0  0
    2.1419    7.0573   13.6806 C   0  0  0  0  0  0  0  0  0  0  0  0
    2.0189    8.1620   14.7029 C   0  0  0  0  0  0  0  0  0  0  0  0
    3.3763    8.3618   15.2793 C   0  0  0  0  0  0  0  0  0  0  0  0
    4.0769    9.5433   15.0966 C   0  0  0  0  0  0  0  0  0  0  0  0
    5.3318    9.6804   15.6404 C   0  0  0  0  0  0  0  0  0  0  0  0
    5.8975    8.6421   16.3692 C   0  0  0  0  0  0  0  0  0  0  0  0
    5.2168    7.4777   16.5538 C   0  0  0  0  0  0  0  0  0  0  0  0
    3.9550    7.3444   16.0052 C   0  0  0  0  0  0  0  0  0  0  0  0
    7.1758    8.8170   16.9076 O   0  0  0  0  0  0  0  0  0  0  0  0
   -0.8166    5.9988    8.4315 N   0  0  0  0  0  0  0  0  0  0  0  0
  1  2  2  0
  2  3  1  0
  3  4  1  0
  4  5  2  0
  4  6  1  0
  6  7  2  0
  7  8  1  0
  8  9  1  0
  9 10  2  0
 10 11  1  0
 11 12  2  0
 12 13  1  0
 13 14  2  0
 11 15  1  0
 15 16  1  0
 16 17  1  0
 17 18  1  0
 18 19  2  0
 19 20  1  0
 20 21  2  0
 21 22  1  0
 22 23  2  0
 21 24  1  0
  9 25  1  0
  5  1  1  0
 14  6  1  0
 13  8  1  0
 23 18  1  0
M  END
$$$$
