
     RDKit          3D

 25 28  0  0  0  0  0  0  0  0999 V2000
    2.9356   -0.2387    6.9723 C   0  0  0  0  0  0  0  0  0  0  0  0
    4.1126   -0.0485    7.6651 C   0  0  0  0  0  0  0  0  0  0  0  0
    3.9574    1.0050    8.4002 O   0  0  0  0  0  0  0  0  0  0  0  0
    2.7714    1.5461    8.2625 C   0  0  0  0  0  0  0  0  0  0  0  0
    2.0847    0.7918    7.3657 C   0  0  0  0  0  0  0  0  0  0  0  0
    2.3252    2.7512    8.9772 C   0  0  0  0  0  0  0  0  0  0  0  0
    1.1240    3.3681    8.8456 N   0  0  0  0  0  0  0  0  0  0  0  0
    1.0332    4.4216    9.6366 N   0  0  0  0  0  0  0  0  0  0  0  0
    0.0549    5.3384    9.8602 C   0  0  0  0  0  0  0  0  0  0  0  0
    0.2591    6.3406   10.7651 N   0  0  0  0  0  0  0  0  0  0  0  0
    1.4182    6.4321   11.4398 C   0  0  0  0  0  0  0  0  0  0  0  0
    2.3593    5.5208   11.2002 N   0  0  0  0  0  0  0  0  0  0  0  0
    2.1868    4.5077   10.3031 C   0  0  0  0  0  0  0  0  0  0  0  0
    2.9866    3.4786    9.8992 N   0  0  0  0  0  0  0  0  0  0  0  0
    1.6177    7.4651   12.3859 N   0  0  0  0  0  0  0  0  0  0  0  0
    2.7751    7.5762   13.2399 C   0  0  0  0  0  0  0  0  0  0  0  0
    2.4854    7.1557   14.6611 C   0  0  0  0  0  0  0  0  0  0  0  0
    3.7739    7.2392   15.4010 C   0  0  0  0  0  0  0  0  0  0  0  0
    4.4355    6.1032   15.8391 C   0  0  0  0  0  0  0  0  0  0  0  0
    5.6193    6.2286   16.5263 C   0  0  0  0  0  0  0  0  0  0  0  0
    6.1518    7.4856   16.7822 C   0  0  0  0  0  0  0  0  0  0  0  0
    5.5089    8.6072   16.3558 C   0  0  0  0  0  0  0  0  0  0  0  0
    4.3187    8.4763   15.6649 C   0  0  0  0  0  0  0  0  0  0  0  0
    7.3577    7.5748   17.4839 O   0  0  0  0  0  0  0  0  0  0  0  0
   -1.1619    5.2242    9.1464 N   0  0  0  0  0  0  0  0  0  0  0  0
  1  2  2  0
  2  3  1  0
  3  4  1  0
  4  5  2  0
  4  6  1  0
  6  7  2  0
  7  8  1  0
  8  9  1  0
  9 10  2  0
 10 11  1  0
 11 12  2  0
 12 13  1  0
 13 14  2  0
 11 15  1  0
 15 16  1  0
 16 17  1  0
 17 18  1  0
 18 19  2  0
 19 20  1  0
 20 21  2  0
 21 22  1  0
 22 23  2  0
 21 24  1  0
  9 25  1  0
  5  1  1  0
 14  6  1  0
 13  8  1  0
 23 18  1  0
M  END
$$$$
