
     RDKit          3D

 25 28  0  0  0  0  0  0  0  0999 V2000
    2.5426    0.2682    6.2190 C   0  0  0  0  0  0  0  0  0  0  0  0
    3.7452    0.1435    6.8820 C   0  0  0  0  0  0  0  0  0  0  0  0
    3.7314    0.9894    7.8611 O   0  0  0  0  0  0  0  0  0  0  0  0
    2.6179    1.6789    7.9165 C   0  0  0  0  0  0  0  0  0  0  0  0
    1.8299    1.2567    6.8939 C   0  0  0  0  0  0  0  0  0  0  0  0
    2.3332    2.7087    8.9267 C   0  0  0  0  0  0  0  0  0  0  0  0
    3.0630    2.9690   10.0403 N   0  0  0  0  0  0  0  0  0  0  0  0
    2.5437    3.9639   10.7363 N   0  0  0  0  0  0  0  0  0  0  0  0
    2.9015    4.5783   11.8947 C   0  0  0  0  0  0  0  0  0  0  0  0
    2.1455    5.6081   12.3774 N   0  0  0  0  0  0  0  0  0  0  0  0
    1.0492    6.0233   11.7195 C   0  0  0  0  0  0  0  0  0  0  0  0
    0.7218    5.4028   10.5877 N   0  0  0  0  0  0  0  0  0  0  0  0
    1.4554    4.3713   10.0788 C   0  0  0  0  0  0  0  0  0  0  0  0
    1.3222    3.5995    8.9616 N   0  0  0  0  0  0  0  0  0  0  0  0
    0.2783    7.1000   12.2184 N   0  0  0  0  0  0  0  0  0  0  0  0
    0.5971    7.8477   13.4102 C   0  0  0  0  0  0  0  0  0  0  0  0
    1.7247    8.8281   13.1912 C   0  0  0  0  0  0  0  0  0  0  0  0
    2.0659    9.3898   14.5264 C   0  0  0  0  0  0  0  0  0  0  0  0
    3.0681    8.8419   15.3110 C   0  0  0  0  0  0  0  0  0  0  0  0
    3.3432    9.3887   16.5418 C   0  0  0  0  0  0  0  0  0  0  0  0
    2.6223   10.4841   16.9994 C   0  0  0  0  0  0  0  0  0  0  0  0
    1.6359   11.0290   16.2356 C   0  0  0  0  0  0  0  0  0  0  0  0
    1.3628   10.4758   14.9985 C   0  0  0  0  0  0  0  0  0  0  0  0
    2.9297   11.0138   18.2562 O   0  0  0  0  0  0  0  0  0  0  0  0
    4.0621    4.1334   12.5716 N   0  0  0  0  0  0  0  0  0  0  0  0
  1  2  2  0
  2  3  1  0
  3  4  1  0
  4  5  2  0
  4  6  1  0
  6  7  2  0
  7  8  1  0
  8  9  1  0
  9 10  2  0
 10 11  1  0
 11 12  2  0
 12 13  1  0
 13 14  2  0
 11 15  1  0
 15 16  1  0
 16 17  1  0
 17 18  1  0
 18 19  2  0
 19 20  1  0
 20 21  2  0
 21 22  1  0
 22 23  2  0
 21 24  1  0
  9 25  1  0
  5  1  1  0
 14  6  1  0
 13  8  1  0
 23 18  1  0
M  END
$$$$
