
     RDKit          3D

 25 28  0  0  0  0  0  0  0  0999 V2000
    0.8885    1.6941    6.4718 C   0  0  0  0  0  0  0  0  0  0  0  0
    2.1285    1.1356    6.6995 C   0  0  0  0  0  0  0  0  0  0  0  0
    2.6363    1.7381    7.7259 O   0  0  0  0  0  0  0  0  0  0  0  0
    1.8428    2.6607    8.2131 C   0  0  0  0  0  0  0  0  0  0  0  0
    0.7189    2.6709    7.4504 C   0  0  0  0  0  0  0  0  0  0  0  0
    2.1674    3.4993    9.3765 C   0  0  0  0  0  0  0  0  0  0  0  0
    3.1741    3.2939   10.2625 N   0  0  0  0  0  0  0  0  0  0  0  0
    3.2017    4.2350   11.1885 N   0  0  0  0  0  0  0  0  0  0  0  0
    4.0018    4.4626   12.2634 C   0  0  0  0  0  0  0  0  0  0  0  0
    3.7777    5.5512   13.0569 N   0  0  0  0  0  0  0  0  0  0  0  0
    2.7733    6.4032   12.7877 C   0  0  0  0  0  0  0  0  0  0  0  0
    2.0048    6.1552   11.7287 N   0  0  0  0  0  0  0  0  0  0  0  0
    2.2021    5.0772   10.9164 C   0  0  0  0  0  0  0  0  0  0  0  0
    1.5616    4.6268    9.7989 N   0  0  0  0  0  0  0  0  0  0  0  0
    2.5553    7.5365   13.6063 N   0  0  0  0  0  0  0  0  0  0  0  0
    1.2539    8.0492   13.9592 C   0  0  0  0  0  0  0  0  0  0  0  0
    0.6535    8.9003   12.8657 C   0  0  0  0  0  0  0  0  0  0  0  0
    0.5092   10.2720   13.4245 C   0  0  0  0  0  0  0  0  0  0  0  0
   -0.0425   10.4926   14.6764 C   0  0  0  0  0  0  0  0  0  0  0  0
   -0.1638   11.7778   15.1487 C   0  0  0  0  0  0  0  0  0  0  0  0
    0.2628   12.8514   14.3778 C   0  0  0  0  0  0  0  0  0  0  0  0
    0.8060   12.6444   13.1468 C   0  0  0  0  0  0  0  0  0  0  0  0
    0.9261   11.3502   12.6759 C   0  0  0  0  0  0  0  0  0  0  0  0
    0.1238   14.1446   14.8905 O   0  0  0  0  0  0  0  0  0  0  0  0
    5.0587    3.5596   12.5294 N   0  0  0  0  0  0  0  0  0  0  0  0
  1  2  2  0
  2  3  1  0
  3  4  1  0
  4  5  2  0
  4  6  1  0
  6  7  2  0
  7  8  1  0
  8  9  1  0
  9 10  2  0
 10 11  1  0
 11 12  2  0
 12 13  1  0
 13 14  2  0
 11 15  1  0
 15 16  1  0
 16 17  1  0
 17 18  1  0
 18 19  2  0
 19 20  1  0
 20 21  2  0
 21 22  1  0
 22 23  2  0
 21 24  1  0
  9 25  1  0
  5  1  1  0
 14  6  1  0
 13  8  1  0
 23 18  1  0
M  END
$$$$
