
     RDKit          3D

 26 30  0  0  0  0  0  0  0  0999 V2000
    4.3786   -1.7033    4.2120 O   0  0  0  0  0  0  0  0  0  0  0  0
    3.6314   -2.7378    4.2841 C   0  0  0  0  0  0  0  0  0  0  0  0
    4.1697   -4.0826    3.8801 C   0  0  0  0  0  0  0  0  0  0  0  0
    4.3819   -4.9138    5.1200 C   0  0  0  0  0  0  0  0  0  0  0  0
    4.5129   -6.2493    5.2358 C   0  0  0  0  0  0  0  0  0  0  0  0
    4.6978   -6.7734    6.4691 C   0  0  0  0  0  0  0  0  0  0  0  0
    4.7438   -5.9436    7.5305 C   0  0  0  0  0  0  0  0  0  0  0  0
    4.5112   -4.3079    6.7449 S   0  0  0  0  0  0  0  0  0  0  0  0
    3.1789   -4.7862    3.0554 C   0  0  0  0  0  0  0  0  0  0  0  0
    1.8705   -5.0095    3.1557 C   0  0  0  0  0  0  0  0  0  0  0  0
    1.2257   -5.7255    2.2203 C   0  0  0  0  0  0  0  0  0  0  0  0
    1.9130   -6.2246    1.1652 C   0  0  0  0  0  0  0  0  0  0  0  0
    3.6153   -5.6106    1.5599 S   0  0  0  0  0  0  0  0  0  0  0  0
    5.3866   -3.9886    3.2550 O   0  0  0  0  0  0  0  0  0  0  0  0
    2.3588   -2.5525    4.7341 O   0  0  0  0  0  0  0  0  0  0  0  0
    1.6633   -1.3079    4.7428 C   0  0  2  0  0  0  0  0  0  0  0  0
    0.8675   -1.1601    5.9975 C   0  0  0  0  0  0  0  0  0  0  0  0
   -0.4296   -0.4518    5.8578 C   0  0  2  0  0  0  0  0  0  0  0  0
   -1.4849   -1.4613    5.4814 C   0  0  2  0  0  0  0  0  0  0  0  0
   -1.4357   -1.4069    3.9627 C   0  0  2  0  0  0  0  0  0  0  0  0
   -0.3978   -0.3566    3.6262 C   0  0  2  0  0  0  0  0  0  0  0  0
    0.9173   -1.0476    3.4756 C   0  0  0  0  0  0  0  0  0  0  0  0
   -0.4626    0.5123    4.7777 N   0  0  0  0  0  4  0  0  0  0  0  0
   -1.7168    1.2017    4.8082 C   0  0  0  0  0  0  0  0  0  0  0  0
    0.5929    1.4712    4.8469 C   0  0  0  0  0  0  0  0  0  0  0  0
   -2.5551   -1.0987    4.6920 O   0  0  0  0  0  0  0  0  0  0  0  0
  1  2  2  0
  2  3  1  0
  3  4  1  0
  4  5  2  0
  5  6  1  0
  6  7  2  0
  7  8  1  0
  3  9  1  0
  9 10  2  0
 10 11  1  0
 11 12  2  0
 12 13  1  0
  3 14  1  0
  2 15  1  0
 16 15  1  6
 16 17  1  0
 18 17  1  6
 18 19  1  0
 19 20  1  0
 20 21  1  0
 21 22  1  1
 21 23  1  0
 23 24  1  0
 23 25  1  0
 20 26  1  1
  8  4  1  0
 13  9  1  0
 22 16  1  0
 23 18  1  0
 19 26  1  1
M  CHG  1  23   1
M  END
$$$$
