
     RDKit          3D

 26 30  0  0  0  0  0  0  0  0999 V2000
    2.6133   -2.8742    5.7621 O   0  0  0  0  0  0  0  0  0  0  0  0
    3.2234   -2.6928    4.6536 C   0  0  0  0  0  0  0  0  0  0  0  0
    4.0470   -3.8020    4.0594 C   0  0  0  0  0  0  0  0  0  0  0  0
    4.3649   -4.8041    5.1401 C   0  0  0  0  0  0  0  0  0  0  0  0
    5.1839   -4.6779    6.2020 C   0  0  0  0  0  0  0  0  0  0  0  0
    5.3098   -5.7274    7.0460 C   0  0  0  0  0  0  0  0  0  0  0  0
    4.6144   -6.8544    6.7942 C   0  0  0  0  0  0  0  0  0  0  0  0
    3.7172   -6.4133    5.2621 S   0  0  0  0  0  0  0  0  0  0  0  0
    3.2645   -4.5072    3.0360 C   0  0  0  0  0  0  0  0  0  0  0  0
    3.5056   -4.9115    1.7909 C   0  0  0  0  0  0  0  0  0  0  0  0
    2.5538   -5.5362    1.0788 C   0  0  0  0  0  0  0  0  0  0  0  0
    1.3377   -5.7572    1.6328 C   0  0  0  0  0  0  0  0  0  0  0  0
    1.5952   -5.0045    3.3054 S   0  0  0  0  0  0  0  0  0  0  0  0
    5.2475   -3.3535    3.5715 O   0  0  0  0  0  0  0  0  0  0  0  0
    3.0864   -1.4723    4.0637 O   0  0  0  0  0  0  0  0  0  0  0  0
    1.9011   -0.6801    4.0802 C   0  0  2  0  0  0  0  0  0  0  0  0
    1.3830   -0.5394    5.4735 C   0  0  0  0  0  0  0  0  0  0  0  0
   -0.0946   -0.5031    5.6106 C   0  0  2  0  0  0  0  0  0  0  0  0
   -0.5970   -1.9206    5.7235 C   0  0  2  0  0  0  0  0  0  0  0  0
   -0.8671   -2.2687    4.2682 C   0  0  2  0  0  0  0  0  0  0  0  0
   -0.5335   -1.0182    3.4817 C   0  0  2  0  0  0  0  0  0  0  0  0
    0.8967   -1.1116    3.0628 C   0  0  0  0  0  0  0  0  0  0  0  0
   -0.7825    0.0235    4.4502 N   0  0  0  0  0  4  0  0  0  0  0  0
   -2.1823    0.1079    4.7381 C   0  0  0  0  0  0  0  0  0  0  0  0
   -0.3140    1.3131    4.0553 C   0  0  0  0  0  0  0  0  0  0  0  0
   -1.8387   -2.2675    5.2357 O   0  0  0  0  0  0  0  0  0  0  0  0
  1  2  2  0
  2  3  1  0
  3  4  1  0
  4  5  2  0
  5  6  1  0
  6  7  2  0
  7  8  1  0
  3  9  1  0
  9 10  2  0
 10 11  1  0
 11 12  2  0
 12 13  1  0
  3 14  1  0
  2 15  1  0
 16 15  1  1
 16 17  1  0
 18 17  1  6
 18 19  1  0
 19 20  1  0
 20 21  1  0
 21 22  1  1
 21 23  1  0
 23 24  1  0
 23 25  1  0
 20 26  1  1
  8  4  1  0
 13  9  1  0
 22 16  1  0
 23 18  1  0
 19 26  1  1
M  CHG  1  23   1
M  END
$$$$
