
     RDKit          3D

 26 30  0  0  0  0  0  0  0  0999 V2000
    2.1536   -2.8205    2.7920 O   0  0  0  0  0  0  0  0  0  0  0  0
    2.6958   -2.8486    3.9492 C   0  0  0  0  0  0  0  0  0  0  0  0
    3.7074   -3.9114    4.2789 C   0  0  0  0  0  0  0  0  0  0  0  0
    3.4642   -4.3942    5.6863 C   0  0  0  0  0  0  0  0  0  0  0  0
    2.3234   -4.8404    6.2465 C   0  0  0  0  0  0  0  0  0  0  0  0
    2.3507   -5.2247    7.5432 C   0  0  0  0  0  0  0  0  0  0  0  0
    3.5124   -5.1473    8.2225 C   0  0  0  0  0  0  0  0  0  0  0  0
    4.6522   -4.4876    6.9528 S   0  0  0  0  0  0  0  0  0  0  0  0
    3.5216   -5.0658    3.3902 C   0  0  0  0  0  0  0  0  0  0  0  0
    3.3699   -5.2176    2.0765 C   0  0  0  0  0  0  0  0  0  0  0  0
    3.1983   -6.4387    1.5449 C   0  0  0  0  0  0  0  0  0  0  0  0
    3.1800   -7.5258    2.3528 C   0  0  0  0  0  0  0  0  0  0  0  0
    3.4293   -6.7168    4.0002 S   0  0  0  0  0  0  0  0  0  0  0  0
    4.9926   -3.4346    4.2418 O   0  0  0  0  0  0  0  0  0  0  0  0
    2.3127   -1.8881    4.8362 O   0  0  0  0  0  0  0  0  0  0  0  0
    1.2876   -0.9230    4.6107 C   0  0  2  0  0  0  0  0  0  0  0  0
    1.1891    0.0179    5.7659 C   0  0  0  0  0  0  0  0  0  0  0  0
   -0.1788    0.4895    6.0975 C   0  0  2  0  0  0  0  0  0  0  0  0
   -0.8087   -0.5036    7.0417 C   0  0  2  0  0  0  0  0  0  0  0  0
   -1.5054   -1.4484    6.0753 C   0  0  2  0  0  0  0  0  0  0  0  0
   -1.2405   -0.8864    4.6941 C   0  0  2  0  0  0  0  0  0  0  0  0
   -0.0016   -1.5336    4.1689 C   0  0  0  0  0  0  0  0  0  0  0  0
   -1.0824    0.5228    4.9664 N   0  0  0  0  0  4  0  0  0  0  0  0
   -2.3289    1.0897    5.3836 C   0  0  0  0  0  0  0  0  0  0  0  0
   -0.5776    1.2781    3.8649 C   0  0  0  0  0  0  0  0  0  0  0  0
   -2.1699   -0.7206    7.0286 O   0  0  0  0  0  0  0  0  0  0  0  0
  1  2  2  0
  2  3  1  0
  3  4  1  0
  4  5  2  0
  5  6  1  0
  6  7  2  0
  7  8  1  0
  3  9  1  0
  9 10  2  0
 10 11  1  0
 11 12  2  0
 12 13  1  0
  3 14  1  0
  2 15  1  0
 16 15  1  1
 16 17  1  0
 18 17  1  6
 18 19  1  0
 19 20  1  0
 20 21  1  0
 21 22  1  1
 21 23  1  0
 23 24  1  0
 23 25  1  0
 20 26  1  1
  8  4  1  0
 13  9  1  0
 22 16  1  0
 23 18  1  0
 19 26  1  1
M  CHG  1  23   1
M  END
$$$$
