
     RDKit          3D

 26 30  0  0  0  0  0  0  0  0999 V2000
    4.9814   -2.7523    4.0028 O   0  0  0  0  0  0  0  0  0  0  0  0
    3.8569   -2.5720    4.5832 C   0  0  0  0  0  0  0  0  0  0  0  0
    3.1662   -3.7253    5.2572 C   0  0  0  0  0  0  0  0  0  0  0  0
    1.7432   -3.7953    4.7638 C   0  0  0  0  0  0  0  0  0  0  0  0
    1.2622   -3.5836    3.5237 C   0  0  0  0  0  0  0  0  0  0  0  0
   -0.0695   -3.7063    3.3202 C   0  0  0  0  0  0  0  0  0  0  0  0
   -0.8611   -4.0344    4.3607 C   0  0  0  0  0  0  0  0  0  0  0  0
    0.3474   -4.1823    5.7262 S   0  0  0  0  0  0  0  0  0  0  0  0
    3.8164   -4.9853    4.8742 C   0  0  0  0  0  0  0  0  0  0  0  0
    3.6554   -5.8535    3.8781 C   0  0  0  0  0  0  0  0  0  0  0  0
    4.4158   -6.9580    3.8047 C   0  0  0  0  0  0  0  0  0  0  0  0
    5.3552   -7.1902    4.7525 C   0  0  0  0  0  0  0  0  0  0  0  0
    5.1169   -5.6995    5.8256 S   0  0  0  0  0  0  0  0  0  0  0  0
    3.1048   -3.5704    6.6183 O   0  0  0  0  0  0  0  0  0  0  0  0
    3.3397   -1.3118    4.5537 O   0  0  0  0  0  0  0  0  0  0  0  0
    2.0562   -0.9621    4.0407 C   0  0  2  0  0  0  0  0  0  0  0  0
    1.4622    0.1570    4.8310 C   0  0  0  0  0  0  0  0  0  0  0  0
   -0.0108    0.1089    5.0088 C   0  0  2  0  0  0  0  0  0  0  0  0
   -0.3156   -0.7208    6.2308 C   0  0  2  0  0  0  0  0  0  0  0  0
   -0.4697   -2.1091    5.6300 C   0  0  2  0  0  0  0  0  0  0  0  0
   -0.2787   -1.9309    4.1383 C   0  0  2  0  0  0  0  0  0  0  0  0
    1.1678   -2.1447    3.8356 C   0  0  0  0  0  0  0  0  0  0  0  0
   -0.7130   -0.5683    3.9386 N   0  0  0  0  0  4  0  0  0  0  0  0
   -2.1223   -0.4592    4.1652 C   0  0  0  0  0  0  0  0  0  0  0  0
   -0.4113   -0.0419    2.6461 C   0  0  0  0  0  0  0  0  0  0  0  0
   -1.4741   -1.4642    6.3049 O   0  0  0  0  0  0  0  0  0  0  0  0
  1  2  2  0
  2  3  1  0
  3  4  1  0
  4  5  2  0
  5  6  1  0
  6  7  2  0
  7  8  1  0
  3  9  1  0
  9 10  2  0
 10 11  1  0
 11 12  2  0
 12 13  1  0
  3 14  1  0
  2 15  1  0
 16 15  1  1
 16 17  1  0
 18 17  1  6
 18 19  1  0
 19 20  1  0
 20 21  1  0
 21 22  1  1
 21 23  1  0
 23 24  1  0
 23 25  1  0
 20 26  1  6
  8  4  1  0
 13  9  1  0
 22 16  1  0
 23 18  1  0
 19 26  1  6
M  CHG  1  23   1
M  END
$$$$
