
     RDKit          3D

 26 30  0  0  0  0  0  0  0  0999 V2000
    3.9983   -2.1205    5.1054 O   0  0  0  0  0  0  0  0  0  0  0  0
    3.4262   -2.9198    4.2883 C   0  0  0  0  0  0  0  0  0  0  0  0
    4.0872   -4.2202    3.9228 C   0  0  0  0  0  0  0  0  0  0  0  0
    4.3118   -5.0216    5.1799 C   0  0  0  0  0  0  0  0  0  0  0  0
    4.0275   -6.3151    5.4254 C   0  0  0  0  0  0  0  0  0  0  0  0
    4.3249   -6.8192    6.6450 C   0  0  0  0  0  0  0  0  0  0  0  0
    4.8917   -6.0124    7.5641 C   0  0  0  0  0  0  0  0  0  0  0  0
    5.0183   -4.4301    6.6547 S   0  0  0  0  0  0  0  0  0  0  0  0
    3.1921   -5.0078    3.0652 C   0  0  0  0  0  0  0  0  0  0  0  0
    3.2299   -5.4101    1.7968 C   0  0  0  0  0  0  0  0  0  0  0  0
    2.2205   -6.1271    1.2769 C   0  0  0  0  0  0  0  0  0  0  0  0
    1.1545   -6.4439    2.0503 C   0  0  0  0  0  0  0  0  0  0  0  0
    1.6539   -5.6440    3.6444 S   0  0  0  0  0  0  0  0  0  0  0  0
    5.3183   -4.0337    3.3484 O   0  0  0  0  0  0  0  0  0  0  0  0
    2.2206   -2.5330    3.7851 O   0  0  0  0  0  0  0  0  0  0  0  0
    1.5168   -1.3497    4.1559 C   0  0  2  0  0  0  0  0  0  0  0  0
    0.8927   -1.5104    5.5028 C   0  0  0  0  0  0  0  0  0  0  0  0
   -0.4202   -0.8429    5.6881 C   0  0  2  0  0  0  0  0  0  0  0  0
   -1.5034   -1.7895    5.2352 C   0  0  2  0  0  0  0  0  0  0  0  0
   -1.6567   -1.4050    3.7721 C   0  0  2  0  0  0  0  0  0  0  0  0
   -0.6858   -0.2648    3.5467 C   0  0  2  0  0  0  0  0  0  0  0  0
    0.6062   -0.8518    3.0822 C   0  0  0  0  0  0  0  0  0  0  0  0
   -0.6082    0.3303    4.8601 N   0  0  0  0  0  4  0  0  0  0  0  0
   -1.8558    0.9443    5.2003 C   0  0  0  0  0  0  0  0  0  0  0  0
    0.4351    1.2941    5.0046 C   0  0  0  0  0  0  0  0  0  0  0  0
   -2.6733   -1.3088    4.6872 O   0  0  0  0  0  0  0  0  0  0  0  0
  1  2  2  0
  2  3  1  0
  3  4  1  0
  4  5  2  0
  5  6  1  0
  6  7  2  0
  7  8  1  0
  3  9  1  0
  9 10  2  0
 10 11  1  0
 11 12  2  0
 12 13  1  0
  3 14  1  0
  2 15  1  0
 16 15  1  6
 16 17  1  0
 18 17  1  6
 18 19  1  0
 19 20  1  0
 20 21  1  0
 21 22  1  1
 21 23  1  0
 23 24  1  0
 23 25  1  0
 20 26  1  1
  8  4  1  0
 13  9  1  0
 22 16  1  0
 23 18  1  0
 19 26  1  1
M  CHG  1  23   1
M  END
$$$$
