
     RDKit          3D

 26 30  0  0  0  0  0  0  0  0999 V2000
    2.5966   -2.0325    4.9443 O   0  0  0  0  0  0  0  0  0  0  0  0
    2.3962   -3.1530    4.3628 C   0  0  0  0  0  0  0  0  0  0  0  0
    3.5629   -4.0286    3.9971 C   0  0  0  0  0  0  0  0  0  0  0  0
    3.9081   -4.8976    5.1798 C   0  0  0  0  0  0  0  0  0  0  0  0
    3.0993   -5.3890    6.1383 C   0  0  0  0  0  0  0  0  0  0  0  0
    3.6450   -6.1551    7.1105 C   0  0  0  0  0  0  0  0  0  0  0  0
    4.9708   -6.3970    7.0837 C   0  0  0  0  0  0  0  0  0  0  0  0
    5.4936   -5.4845    5.5867 S   0  0  0  0  0  0  0  0  0  0  0  0
    3.1835   -4.9276    2.8994 C   0  0  0  0  0  0  0  0  0  0  0  0
    3.2181   -4.8453    1.5713 C   0  0  0  0  0  0  0  0  0  0  0  0
    2.7708   -5.8584    0.8119 C   0  0  0  0  0  0  0  0  0  0  0  0
    2.2804   -6.9743    1.4028 C   0  0  0  0  0  0  0  0  0  0  0  0
    2.4835   -6.5194    3.1868 S   0  0  0  0  0  0  0  0  0  0  0  0
    4.6864   -3.3002    3.7013 O   0  0  0  0  0  0  0  0  0  0  0  0
    1.1028   -3.4933    4.1028 O   0  0  0  0  0  0  0  0  0  0  0  0
   -0.0264   -2.6467    4.3059 C   0  0  2  0  0  0  0  0  0  0  0  0
   -0.1678   -1.6802    3.1766 C   0  0  0  0  0  0  0  0  0  0  0  0
   -0.6698   -0.3319    3.5419 C   0  0  2  0  0  0  0  0  0  0  0  0
    0.5081    0.5244    3.9339 C   0  0  2  0  0  0  0  0  0  0  0  0
    0.5790    0.2831    5.4335 C   0  0  2  0  0  0  0  0  0  0  0  0
   -0.5750   -0.6446    5.7517 C   0  0  2  0  0  0  0  0  0  0  0  0
   -0.0674   -2.0467    5.6728 C   0  0  0  0  0  0  0  0  0  0  0  0
   -1.5223   -0.3163    4.7125 N   0  0  0  0  0  4  0  0  0  0  0  0
   -2.0265    1.0099    4.9027 C   0  0  0  0  0  0  0  0  0  0  0  0
   -2.6238   -1.2198    4.6186 C   0  0  0  0  0  0  0  0  0  0  0  0
    0.3710    1.5193    4.8780 O   0  0  0  0  0  0  0  0  0  0  0  0
  1  2  2  0
  2  3  1  0
  3  4  1  0
  4  5  2  0
  5  6  1  0
  6  7  2  0
  7  8  1  0
  3  9  1  0
  9 10  2  0
 10 11  1  0
 11 12  2  0
 12 13  1  0
  3 14  1  0
  2 15  1  0
 16 15  1  6
 16 17  1  0
 18 17  1  1
 18 19  1  0
 19 20  1  0
 20 21  1  0
 21 22  1  6
 21 23  1  0
 23 24  1  0
 23 25  1  0
 20 26  1  1
  8  4  1  0
 13  9  1  0
 22 16  1  0
 23 18  1  0
 19 26  1  1
M  CHG  1  23   1
M  END
$$$$
