
     RDKit          3D

 26 30  0  0  0  0  0  0  0  0999 V2000
    1.2276   -3.5366    4.3595 O   0  0  0  0  0  0  0  0  0  0  0  0
    2.4366   -3.1265    4.4235 C   0  0  0  0  0  0  0  0  0  0  0  0
    3.5636   -4.0502    4.0521 C   0  0  0  0  0  0  0  0  0  0  0  0
    4.0694   -4.7267    5.3010 C   0  0  0  0  0  0  0  0  0  0  0  0
    3.4245   -5.5669    6.1331 C   0  0  0  0  0  0  0  0  0  0  0  0
    4.0944   -6.0532    7.2030 C   0  0  0  0  0  0  0  0  0  0  0  0
    5.3755   -5.6808    7.3952 C   0  0  0  0  0  0  0  0  0  0  0  0
    5.6652   -4.5669    5.9732 S   0  0  0  0  0  0  0  0  0  0  0  0
    3.0659   -5.1073    3.1622 C   0  0  0  0  0  0  0  0  0  0  0  0
    3.2968   -6.4129    3.0436 C   0  0  0  0  0  0  0  0  0  0  0  0
    2.6824   -7.1316    2.0900 C   0  0  0  0  0  0  0  0  0  0  0  0
    1.8198   -6.5225    1.2416 C   0  0  0  0  0  0  0  0  0  0  0  0
    1.9077   -4.7837    1.8737 S   0  0  0  0  0  0  0  0  0  0  0  0
    4.6282   -3.3783    3.5084 O   0  0  0  0  0  0  0  0  0  0  0  0
    2.6342   -1.8430    4.8359 O   0  0  0  0  0  0  0  0  0  0  0  0
    1.6063   -0.8732    5.0252 C   0  0  2  0  0  0  0  0  0  0  0  0
    0.7101   -1.2711    6.1513 C   0  0  0  0  0  0  0  0  0  0  0  0
   -0.7230   -0.9204    5.9887 C   0  0  2  0  0  0  0  0  0  0  0  0
   -1.4054   -2.0402    5.2438 C   0  0  2  0  0  0  0  0  0  0  0  0
   -1.2603   -1.5836    3.8007 C   0  0  2  0  0  0  0  0  0  0  0  0
   -0.5529   -0.2462    3.8658 C   0  0  2  0  0  0  0  0  0  0  0  0
    0.9142   -0.5010    3.7554 C   0  0  0  0  0  0  0  0  0  0  0  0
   -0.9555    0.2459    5.1623 N   0  0  0  0  0  4  0  0  0  0  0  0
   -2.3551    0.5465    5.1655 C   0  0  0  0  0  0  0  0  0  0  0  0
   -0.2350    1.3983    5.5999 C   0  0  0  0  0  0  0  0  0  0  0  0
   -2.4724   -1.7824    4.4101 O   0  0  0  0  0  0  0  0  0  0  0  0
  1  2  2  0
  2  3  1  0
  3  4  1  0
  4  5  2  0
  5  6  1  0
  6  7  2  0
  7  8  1  0
  3  9  1  0
  9 10  2  0
 10 11  1  0
 11 12  2  0
 12 13  1  0
  3 14  1  0
  2 15  1  0
 16 15  1  6
 16 17  1  0
 18 17  1  6
 18 19  1  0
 19 20  1  0
 20 21  1  0
 21 22  1  1
 21 23  1  0
 23 24  1  0
 23 25  1  0
 20 26  1  1
  8  4  1  0
 13  9  1  0
 22 16  1  0
 23 18  1  0
 19 26  1  1
M  CHG  1  23   1
M  END
$$$$
