
     RDKit          3D

 26 30  0  0  0  0  0  0  0  0999 V2000
    4.4516   -1.8369    5.0766 O   0  0  0  0  0  0  0  0  0  0  0  0
    3.7896   -2.7513    4.4770 C   0  0  0  0  0  0  0  0  0  0  0  0
    4.3007   -4.1655    4.4683 C   0  0  0  0  0  0  0  0  0  0  0  0
    3.8136   -4.8662    5.7112 C   0  0  0  0  0  0  0  0  0  0  0  0
    2.6763   -5.5616    5.9045 C   0  0  0  0  0  0  0  0  0  0  0  0
    2.4547   -6.1074    7.1222 C   0  0  0  0  0  0  0  0  0  0  0  0
    3.3756   -5.9360    8.0915 C   0  0  0  0  0  0  0  0  0  0  0  0
    4.6467   -4.9364    7.2360 S   0  0  0  0  0  0  0  0  0  0  0  0
    3.7400   -4.8886    3.3195 C   0  0  0  0  0  0  0  0  0  0  0  0
    4.2506   -5.6610    2.3631 C   0  0  0  0  0  0  0  0  0  0  0  0
    3.4604   -6.1814    1.4103 C   0  0  0  0  0  0  0  0  0  0  0  0
    2.1317   -5.9183    1.4228 C   0  0  0  0  0  0  0  0  0  0  0  0
    2.0231   -4.8391    2.9242 S   0  0  0  0  0  0  0  0  0  0  0  0
    5.6706   -4.2229    4.4941 O   0  0  0  0  0  0  0  0  0  0  0  0
    2.6308   -2.3772    3.8658 O   0  0  0  0  0  0  0  0  0  0  0  0
    1.8421   -1.2443    4.2226 C   0  0  2  0  0  0  0  0  0  0  0  0
    1.6304   -1.1963    5.6999 C   0  0  0  0  0  0  0  0  0  0  0  0
    0.3112   -0.6816    6.1451 C   0  0  2  0  0  0  0  0  0  0  0  0
   -0.6589   -1.8354    6.1913 C   0  0  2  0  0  0  0  0  0  0  0  0
   -1.2556   -1.7926    4.7934 C   0  0  2  0  0  0  0  0  0  0  0  0
   -0.6041   -0.6093    4.1086 C   0  0  2  0  0  0  0  0  0  0  0  0
    0.6079   -1.1079    3.3929 C   0  0  0  0  0  0  0  0  0  0  0  0
   -0.2986    0.2551    5.2242 N   0  0  0  0  0  4  0  0  0  0  0  0
   -1.5058    0.7593    5.8053 C   0  0  0  0  0  0  0  0  0  0  0  0
    0.5503    1.3553    4.8961 C   0  0  0  0  0  0  0  0  0  0  0  0
   -1.9989   -1.6382    5.9352 O   0  0  0  0  0  0  0  0  0  0  0  0
  1  2  2  0
  2  3  1  0
  3  4  1  0
  4  5  2  0
  5  6  1  0
  6  7  2  0
  7  8  1  0
  3  9  1  0
  9 10  2  0
 10 11  1  0
 11 12  2  0
 12 13  1  0
  3 14  1  0
  2 15  1  0
 16 15  1  1
 16 17  1  0
 18 17  1  6
 18 19  1  0
 19 20  1  0
 20 21  1  0
 21 22  1  1
 21 23  1  0
 23 24  1  0
 23 25  1  0
 20 26  1  1
  8  4  1  0
 13  9  1  0
 22 16  1  0
 23 18  1  0
 19 26  1  1
M  CHG  1  23   1
M  END
$$$$
