
     RDKit          3D

 26 30  0  0  0  0  0  0  0  0999 V2000
    3.9194   -1.9894    3.0658 O   0  0  0  0  0  0  0  0  0  0  0  0
    3.7010   -2.8256    4.0076 C   0  0  0  0  0  0  0  0  0  0  0  0
    4.1636   -4.2498    3.8697 C   0  0  0  0  0  0  0  0  0  0  0  0
    4.1923   -4.8862    5.2362 C   0  0  0  0  0  0  0  0  0  0  0  0
    3.3820   -5.8311    5.7509 C   0  0  0  0  0  0  0  0  0  0  0  0
    3.6065   -6.2514    7.0169 C   0  0  0  0  0  0  0  0  0  0  0  0
    4.6275   -5.7118    7.7123 C   0  0  0  0  0  0  0  0  0  0  0  0
    5.3259   -4.5277    6.5052 S   0  0  0  0  0  0  0  0  0  0  0  0
    3.1995   -5.0086    3.0624 C   0  0  0  0  0  0  0  0  0  0  0  0
    2.2168   -5.8623    3.3404 C   0  0  0  0  0  0  0  0  0  0  0  0
    1.4991   -6.4231    2.3536 C   0  0  0  0  0  0  0  0  0  0  0  0
    1.7775   -6.1167    1.0639 C   0  0  0  0  0  0  0  0  0  0  0  0
    3.1804   -4.9310    1.3017 S   0  0  0  0  0  0  0  0  0  0  0  0
    5.4366   -4.3361    3.3674 O   0  0  0  0  0  0  0  0  0  0  0  0
    3.0441   -2.3619    5.1076 O   0  0  0  0  0  0  0  0  0  0  0  0
    2.1003   -1.2932    5.1114 C   0  0  2  0  0  0  0  0  0  0  0  0
    1.2122   -1.3814    6.3085 C   0  0  0  0  0  0  0  0  0  0  0  0
   -0.1942   -0.9547    6.0999 C   0  0  2  0  0  0  0  0  0  0  0  0
   -0.9838   -2.1421    5.6089 C   0  0  2  0  0  0  0  0  0  0  0  0
   -0.8496   -1.9993    4.1011 C   0  0  2  0  0  0  0  0  0  0  0  0
   -0.0398   -0.7385    3.8819 C   0  0  2  0  0  0  0  0  0  0  0  0
    1.3992   -1.1293    3.8031 C   0  0  0  0  0  0  0  0  0  0  0  0
   -0.3622    0.0361    5.0572 N   0  0  0  0  0  4  0  0  0  0  0  0
   -1.7338    0.4444    5.0206 C   0  0  0  0  0  0  0  0  0  0  0  0
    0.4582    1.1902    5.2401 C   0  0  0  0  0  0  0  0  0  0  0  0
   -2.0536   -1.9714    4.7566 O   0  0  0  0  0  0  0  0  0  0  0  0
  1  2  2  0
  2  3  1  0
  3  4  1  0
  4  5  2  0
  5  6  1  0
  6  7  2  0
  7  8  1  0
  3  9  1  0
  9 10  2  0
 10 11  1  0
 11 12  2  0
 12 13  1  0
  3 14  1  0
  2 15  1  0
 16 15  1  6
 16 17  1  0
 18 17  1  6
 18 19  1  0
 19 20  1  0
 20 21  1  0
 21 22  1  1
 21 23  1  0
 23 24  1  0
 23 25  1  0
 20 26  1  6
  8  4  1  0
 13  9  1  0
 22 16  1  0
 23 18  1  0
 19 26  1  6
M  CHG  1  23   1
M  END
$$$$
