
     RDKit          3D

 26 30  0  0  0  0  0  0  0  0999 V2000
    1.2077   -3.4687    4.0928 O   0  0  0  0  0  0  0  0  0  0  0  0
    2.3968   -3.0060    4.0165 C   0  0  0  0  0  0  0  0  0  0  0  0
    3.5153   -3.8860    3.5305 C   0  0  0  0  0  0  0  0  0  0  0  0
    4.0824   -4.6441    4.7038 C   0  0  0  0  0  0  0  0  0  0  0  0
    3.4362   -5.2246    5.7332 C   0  0  0  0  0  0  0  0  0  0  0  0
    4.1685   -5.8566    6.6787 C   0  0  0  0  0  0  0  0  0  0  0  0
    5.5106   -5.8819    6.5559 C   0  0  0  0  0  0  0  0  0  0  0  0
    5.7678   -4.9519    5.0016 S   0  0  0  0  0  0  0  0  0  0  0  0
    2.9891   -4.8824    2.5886 C   0  0  0  0  0  0  0  0  0  0  0  0
    3.3811   -5.3451    1.4036 C   0  0  0  0  0  0  0  0  0  0  0  0
    2.6570   -6.2744    0.7592 C   0  0  0  0  0  0  0  0  0  0  0  0
    1.5176   -6.7453    1.3203 C   0  0  0  0  0  0  0  0  0  0  0  0
    1.4971   -5.7695    2.8944 S   0  0  0  0  0  0  0  0  0  0  0  0
    4.5483   -3.1629    2.9913 O   0  0  0  0  0  0  0  0  0  0  0  0
    2.5821   -1.7092    4.3911 O   0  0  0  0  0  0  0  0  0  0  0  0
    1.5481   -0.7364    4.5237 C   0  0  2  0  0  0  0  0  0  0  0  0
    0.9053   -0.8335    5.8679 C   0  0  0  0  0  0  0  0  0  0  0  0
   -0.5524   -0.5556    5.9062 C   0  0  2  0  0  0  0  0  0  0  0  0
   -1.2893   -1.8407    5.6234 C   0  0  2  0  0  0  0  0  0  0  0  0
   -1.4457   -1.7801    4.1122 C   0  0  2  0  0  0  0  0  0  0  0  0
   -0.8251   -0.4645    3.6909 C   0  0  2  0  0  0  0  0  0  0  0  0
    0.6087   -0.7216    3.3629 C   0  0  0  0  0  0  0  0  0  0  0  0
   -1.0088    0.3479    4.8706 N   0  0  0  0  0  4  0  0  0  0  0  0
   -2.3994    0.6215    5.0721 C   0  0  0  0  0  0  0  0  0  0  0  0
   -0.2940    1.5836    4.8466 C   0  0  0  0  0  0  0  0  0  0  0  0
   -2.5075   -1.8255    4.9786 O   0  0  0  0  0  0  0  0  0  0  0  0
  1  2  2  0
  2  3  1  0
  3  4  1  0
  4  5  2  0
  5  6  1  0
  6  7  2  0
  7  8  1  0
  3  9  1  0
  9 10  2  0
 10 11  1  0
 11 12  2  0
 12 13  1  0
  3 14  1  0
  2 15  1  0
 16 15  1  6
 16 17  1  0
 18 17  1  6
 18 19  1  0
 19 20  1  0
 20 21  1  0
 21 22  1  1
 21 23  1  0
 23 24  1  0
 23 25  1  0
 20 26  1  1
  8  4  1  0
 13  9  1  0
 22 16  1  0
 23 18  1  0
 19 26  1  1
M  CHG  1  23   1
M  END
$$$$
