
     RDKit          3D

 26 30  0  0  0  0  0  0  0  0999 V2000
    4.3783   -1.5865    4.1893 O   0  0  0  0  0  0  0  0  0  0  0  0
    3.6475   -2.6257    4.3297 C   0  0  0  0  0  0  0  0  0  0  0  0
    4.1727   -3.9741    3.9206 C   0  0  0  0  0  0  0  0  0  0  0  0
    4.4188   -4.7965    5.1600 C   0  0  0  0  0  0  0  0  0  0  0  0
    4.2876   -4.4446    6.4535 C   0  0  0  0  0  0  0  0  0  0  0  0
    4.5689   -5.3661    7.4030 C   0  0  0  0  0  0  0  0  0  0  0  0
    4.9679   -6.5957    7.0211 C   0  0  0  0  0  0  0  0  0  0  0  0
    4.9481   -6.4526    5.1974 S   0  0  0  0  0  0  0  0  0  0  0  0
    3.1584   -4.6823    3.1291 C   0  0  0  0  0  0  0  0  0  0  0  0
    1.8631   -4.9432    3.2907 C   0  0  0  0  0  0  0  0  0  0  0  0
    1.1887   -5.6517    2.3707 C   0  0  0  0  0  0  0  0  0  0  0  0
    1.8324   -6.1046    1.2682 C   0  0  0  0  0  0  0  0  0  0  0  0
    3.5368   -5.4556    1.5911 S   0  0  0  0  0  0  0  0  0  0  0  0
    5.3717   -3.8862    3.2609 O   0  0  0  0  0  0  0  0  0  0  0  0
    2.4039   -2.4419    4.8552 O   0  0  0  0  0  0  0  0  0  0  0  0
    1.6633   -1.2245    4.8075 C   0  0  2  0  0  0  0  0  0  0  0  0
    0.8051   -1.0843    6.0213 C   0  0  0  0  0  0  0  0  0  0  0  0
   -0.5093   -0.4280    5.8085 C   0  0  2  0  0  0  0  0  0  0  0  0
   -1.5080   -1.4832    5.4041 C   0  0  2  0  0  0  0  0  0  0  0  0
   -1.3903   -1.4542    3.8884 C   0  0  2  0  0  0  0  0  0  0  0  0
   -0.3773   -0.3718    3.5792 C   0  0  2  0  0  0  0  0  0  0  0  0
    0.9679   -1.0153    3.5025 C   0  0  0  0  0  0  0  0  0  0  0  0
   -0.5276    0.5146    4.7092 N   0  0  0  0  0  4  0  0  0  0  0  0
   -1.8064    1.1567    4.6686 C   0  0  0  0  0  0  0  0  0  0  0  0
    0.4876    1.5137    4.8077 C   0  0  0  0  0  0  0  0  0  0  0  0
   -2.5531   -1.1754    4.5595 O   0  0  0  0  0  0  0  0  0  0  0  0
  1  2  2  0
  2  3  1  0
  3  4  1  0
  4  5  2  0
  5  6  1  0
  6  7  2  0
  7  8  1  0
  3  9  1  0
  9 10  2  0
 10 11  1  0
 11 12  2  0
 12 13  1  0
  3 14  1  0
  2 15  1  0
 16 15  1  6
 16 17  1  0
 18 17  1  6
 18 19  1  0
 19 20  1  0
 20 21  1  0
 21 22  1  1
 21 23  1  0
 23 24  1  0
 23 25  1  0
 20 26  1  6
  8  4  1  0
 13  9  1  0
 22 16  1  0
 23 18  1  0
 19 26  1  6
M  CHG  1  23   1
M  END
$$$$
