
     RDKit          3D

 26 30  0  0  0  0  0  0  0  0999 V2000
    2.2125   -2.7819    6.8897 O   0  0  0  0  0  0  0  0  0  0  0  0
    2.3700   -3.2217    5.6999 C   0  0  0  0  0  0  0  0  0  0  0  0
    2.6624   -4.6789    5.4705 C   0  0  0  0  0  0  0  0  0  0  0  0
    2.1102   -5.0797    4.1261 C   0  0  0  0  0  0  0  0  0  0  0  0
    0.8962   -5.5765    3.8197 C   0  0  0  0  0  0  0  0  0  0  0  0
    0.6264   -5.8642    2.5257 C   0  0  0  0  0  0  0  0  0  0  0  0
    1.5775   -5.6439    1.5962 C   0  0  0  0  0  0  0  0  0  0  0  0
    2.9523   -4.9851    2.6075 S   0  0  0  0  0  0  0  0  0  0  0  0
    4.1147   -4.8913    5.4193 C   0  0  0  0  0  0  0  0  0  0  0  0
    5.1249   -4.2880    4.7969 C   0  0  0  0  0  0  0  0  0  0  0  0
    6.3818   -4.7392    4.9379 C   0  0  0  0  0  0  0  0  0  0  0  0
    6.6237   -5.8176    5.7210 C   0  0  0  0  0  0  0  0  0  0  0  0
    4.9045   -6.2031    6.2921 S   0  0  0  0  0  0  0  0  0  0  0  0
    2.0568   -5.4830    6.4016 O   0  0  0  0  0  0  0  0  0  0  0  0
    2.2609   -2.3180    4.6861 O   0  0  0  0  0  0  0  0  0  0  0  0
    1.5490   -1.0848    4.7576 C   0  0  2  0  0  0  0  0  0  0  0  0
    0.5977   -1.0937    5.9085 C   0  0  0  0  0  0  0  0  0  0  0  0
   -0.6827   -0.3749    5.6912 C   0  0  2  0  0  0  0  0  0  0  0  0
   -1.6645   -1.3313    5.0620 C   0  0  2  0  0  0  0  0  0  0  0  0
   -1.4234   -1.0897    3.5802 C   0  0  2  0  0  0  0  0  0  0  0  0
   -0.3690   -0.0049    3.5107 C   0  0  2  0  0  0  0  0  0  0  0  0
    0.9660   -0.6707    3.4466 C   0  0  0  0  0  0  0  0  0  0  0  0
   -0.5944    0.7151    4.7419 N   0  0  0  0  0  4  0  0  0  0  0  0
   -1.8537    1.3943    4.6953 C   0  0  0  0  0  0  0  0  0  0  0  0
    0.4276    1.6592    5.0626 C   0  0  0  0  0  0  0  0  0  0  0  0
   -2.6316   -0.8751    4.1921 O   0  0  0  0  0  0  0  0  0  0  0  0
  1  2  2  0
  2  3  1  0
  3  4  1  0
  4  5  2  0
  5  6  1  0
  6  7  2  0
  7  8  1  0
  3  9  1  0
  9 10  2  0
 10 11  1  0
 11 12  2  0
 12 13  1  0
  3 14  1  0
  2 15  1  0
 16 15  1  6
 16 17  1  0
 18 17  1  6
 18 19  1  0
 19 20  1  0
 20 21  1  0
 21 22  1  1
 21 23  1  0
 23 24  1  0
 23 25  1  0
 20 26  1  6
  8  4  1  0
 13  9  1  0
 22 16  1  0
 23 18  1  0
 19 26  1  1
M  CHG  1  23   1
M  END
$$$$
