
     RDKit          3D

 26 30  0  0  0  0  0  0  0  0999 V2000
    4.2937   -1.6242    4.0660 O   0  0  0  0  0  0  0  0  0  0  0  0
    3.5926   -2.6929    4.0606 C   0  0  0  0  0  0  0  0  0  0  0  0
    4.2615   -4.0291    3.8917 C   0  0  0  0  0  0  0  0  0  0  0  0
    4.1300   -4.8047    5.1779 C   0  0  0  0  0  0  0  0  0  0  0  0
    3.2725   -5.7957    5.4890 C   0  0  0  0  0  0  0  0  0  0  0  0
    3.3454   -6.3465    6.7223 C   0  0  0  0  0  0  0  0  0  0  0  0
    4.2689   -5.8855    7.5893 C   0  0  0  0  0  0  0  0  0  0  0  0
    5.0973   -4.5840    6.6061 S   0  0  0  0  0  0  0  0  0  0  0  0
    3.5706   -4.8018    2.8513 C   0  0  0  0  0  0  0  0  0  0  0  0
    3.9444   -5.3681    1.7060 C   0  0  0  0  0  0  0  0  0  0  0  0
    3.0506   -6.0127    0.9387 C   0  0  0  0  0  0  0  0  0  0  0  0
    1.7572   -6.0876    1.3339 C   0  0  0  0  0  0  0  0  0  0  0  0
    1.8460   -5.1562    2.9324 S   0  0  0  0  0  0  0  0  0  0  0  0
    5.6039   -3.9097    3.6384 O   0  0  0  0  0  0  0  0  0  0  0  0
    2.2460   -2.5510    4.2117 O   0  0  0  0  0  0  0  0  0  0  0  0
    1.5611   -1.3082    4.3503 C   0  0  2  0  0  0  0  0  0  0  0  0
    1.4717   -0.9155    5.7881 C   0  0  0  0  0  0  0  0  0  0  0  0
    0.2272   -0.2116    6.1873 C   0  0  2  0  0  0  0  0  0  0  0  0
   -0.8066   -1.2455    6.5572 C   0  0  2  0  0  0  0  0  0  0  0  0
   -1.5093   -1.4681    5.2273 C   0  0  2  0  0  0  0  0  0  0  0  0
   -0.8416   -0.5227    4.2506 C   0  0  2  0  0  0  0  0  0  0  0  0
    0.2755   -1.2627    3.5917 C   0  0  0  0  0  0  0  0  0  0  0  0
   -0.3942    0.5416    5.1179 N   0  0  0  0  0  4  0  0  0  0  0  0
   -1.5170    1.2567    5.6444 C   0  0  0  0  0  0  0  0  0  0  0  0
    0.4931    1.4701    4.4942 C   0  0  0  0  0  0  0  0  0  0  0  0
   -2.1477   -1.0048    6.3488 O   0  0  0  0  0  0  0  0  0  0  0  0
  1  2  2  0
  2  3  1  0
  3  4  1  0
  4  5  2  0
  5  6  1  0
  6  7  2  0
  7  8  1  0
  3  9  1  0
  9 10  2  0
 10 11  1  0
 11 12  2  0
 12 13  1  0
  3 14  1  0
  2 15  1  0
 16 15  1  1
 16 17  1  0
 18 17  1  6
 18 19  1  0
 19 20  1  0
 20 21  1  0
 21 22  1  1
 21 23  1  0
 23 24  1  0
 23 25  1  0
 20 26  1  1
  8  4  1  0
 13  9  1  0
 22 16  1  0
 23 18  1  0
 19 26  1  1
M  CHG  1  23   1
M  END
$$$$
