
     RDKit          3D

 26 30  0  0  0  0  0  0  0  0999 V2000
    4.3816   -1.8378    3.8214 O   0  0  0  0  0  0  0  0  0  0  0  0
    3.7266   -2.8922    4.1263 C   0  0  0  0  0  0  0  0  0  0  0  0
    4.2852   -4.2471    3.7892 C   0  0  0  0  0  0  0  0  0  0  0  0
    4.4290   -5.0439    5.0609 C   0  0  0  0  0  0  0  0  0  0  0  0
    4.9128   -6.2890    5.2337 C   0  0  0  0  0  0  0  0  0  0  0  0
    4.9432   -6.7998    6.4859 C   0  0  0  0  0  0  0  0  0  0  0  0
    4.4905   -6.0474    7.5087 C   0  0  0  0  0  0  0  0  0  0  0  0
    3.9845   -4.5104    6.6553 S   0  0  0  0  0  0  0  0  0  0  0  0
    3.3403   -4.9737    2.9312 C   0  0  0  0  0  0  0  0  0  0  0  0
    3.1845   -5.1043    1.6157 C   0  0  0  0  0  0  0  0  0  0  0  0
    2.1835   -5.8473    1.1164 C   0  0  0  0  0  0  0  0  0  0  0  0
    1.3250   -6.4698    1.9592 C   0  0  0  0  0  0  0  0  0  0  0  0
    2.0209   -5.9381    3.5913 S   0  0  0  0  0  0  0  0  0  0  0  0
    5.5344   -4.1692    3.2289 O   0  0  0  0  0  0  0  0  0  0  0  0
    2.5301   -2.7181    4.7545 O   0  0  0  0  0  0  0  0  0  0  0  0
    1.7518   -1.5239    4.7235 C   0  0  2  0  0  0  0  0  0  0  0  0
    0.9322   -1.3991    5.9654 C   0  0  0  0  0  0  0  0  0  0  0  0
   -0.4080   -0.7844    5.7935 C   0  0  2  0  0  0  0  0  0  0  0  0
   -1.3877   -1.8725    5.4320 C   0  0  2  0  0  0  0  0  0  0  0  0
   -1.3233   -1.8530    3.9130 C   0  0  2  0  0  0  0  0  0  0  0  0
   -0.3548   -0.7433    3.5606 C   0  0  2  0  0  0  0  0  0  0  0  0
    1.0058   -1.3468    3.4420 C   0  0  0  0  0  0  0  0  0  0  0  0
   -0.4928    0.1478    4.6885 N   0  0  0  0  0  4  0  0  0  0  0  0
   -1.7911    0.7509    4.6877 C   0  0  0  0  0  0  0  0  0  0  0  0
    0.4945    1.1777    4.7442 C   0  0  0  0  0  0  0  0  0  0  0  0
   -2.4701   -1.6035    4.6220 O   0  0  0  0  0  0  0  0  0  0  0  0
  1  2  2  0
  2  3  1  0
  3  4  1  0
  4  5  2  0
  5  6  1  0
  6  7  2  0
  7  8  1  0
  3  9  1  0
  9 10  2  0
 10 11  1  0
 11 12  2  0
 12 13  1  0
  3 14  1  0
  2 15  1  0
 16 15  1  6
 16 17  1  0
 18 17  1  6
 18 19  1  0
 19 20  1  0
 20 21  1  0
 21 22  1  1
 21 23  1  0
 23 24  1  0
 23 25  1  0
 20 26  1  6
  8  4  1  0
 13  9  1  0
 22 16  1  0
 23 18  1  0
 19 26  1  6
M  CHG  1  23   1
M  END
$$$$
