
     RDKit          3D

 26 30  0  0  0  0  0  0  0  0999 V2000
    4.2657   -1.5053    3.8966 O   0  0  0  0  0  0  0  0  0  0  0  0
    3.6182   -2.6068    3.9318 C   0  0  0  0  0  0  0  0  0  0  0  0
    4.3130   -3.8974    3.5956 C   0  0  0  0  0  0  0  0  0  0  0  0
    4.4977   -4.6945    4.8619 C   0  0  0  0  0  0  0  0  0  0  0  0
    4.3091   -4.3146    6.1404 C   0  0  0  0  0  0  0  0  0  0  0  0
    4.5418   -5.2170    7.1209 C   0  0  0  0  0  0  0  0  0  0  0  0
    4.9514   -6.4562    6.7836 C   0  0  0  0  0  0  0  0  0  0  0  0
    5.0160   -6.3516    4.9583 S   0  0  0  0  0  0  0  0  0  0  0  0
    3.4659   -4.6989    2.7029 C   0  0  0  0  0  0  0  0  0  0  0  0
    3.4571   -5.9739    2.3204 C   0  0  0  0  0  0  0  0  0  0  0  0
    2.5359   -6.4203    1.4513 C   0  0  0  0  0  0  0  0  0  0  0  0
    1.6072   -5.5656    0.9597 C   0  0  0  0  0  0  0  0  0  0  0  0
    2.1076   -4.0038    1.8207 S   0  0  0  0  0  0  0  0  0  0  0  0
    5.5638   -3.6929    3.0721 O   0  0  0  0  0  0  0  0  0  0  0  0
    2.3028   -2.5412    4.2807 O   0  0  0  0  0  0  0  0  0  0  0  0
    1.5521   -1.3387    4.4335 C   0  0  2  0  0  0  0  0  0  0  0  0
    1.1129   -1.1706    5.8507 C   0  0  0  0  0  0  0  0  0  0  0  0
   -0.2192   -0.5442    6.0421 C   0  0  2  0  0  0  0  0  0  0  0  0
   -1.2657   -1.6292    6.0004 C   0  0  2  0  0  0  0  0  0  0  0  0
   -1.6284   -1.6511    4.5239 C   0  0  2  0  0  0  0  0  0  0  0  0
   -0.7921   -0.5633    3.8830 C   0  0  2  0  0  0  0  0  0  0  0  0
    0.4785   -1.1866    3.4068 C   0  0  0  0  0  0  0  0  0  0  0  0
   -0.6053    0.3592    4.9781 N   0  0  0  0  0  4  0  0  0  0  0  0
   -1.8494    0.9781    5.3222 C   0  0  0  0  0  0  0  0  0  0  0  0
    0.3627    1.3779    4.7258 C   0  0  0  0  0  0  0  0  0  0  0  0
   -2.5302   -1.3685    5.5174 O   0  0  0  0  0  0  0  0  0  0  0  0
  1  2  2  0
  2  3  1  0
  3  4  1  0
  4  5  2  0
  5  6  1  0
  6  7  2  0
  7  8  1  0
  3  9  1  0
  9 10  2  0
 10 11  1  0
 11 12  2  0
 12 13  1  0
  3 14  1  0
  2 15  1  0
 16 15  1  1
 16 17  1  0
 18 17  1  6
 18 19  1  0
 19 20  1  0
 20 21  1  0
 21 22  1  1
 21 23  1  0
 23 24  1  0
 23 25  1  0
 20 26  1  1
  8  4  1  0
 13  9  1  0
 22 16  1  0
 23 18  1  0
 19 26  1  1
M  CHG  1  23   1
M  END
$$$$
