
     RDKit          3D

 26 30  0  0  0  0  0  0  0  0999 V2000
    2.6417   -1.6237    4.7377 O   0  0  0  0  0  0  0  0  0  0  0  0
    2.3802   -2.8748    4.7244 C   0  0  0  0  0  0  0  0  0  0  0  0
    3.3792   -3.8449    4.1567 C   0  0  0  0  0  0  0  0  0  0  0  0
    3.7531   -4.8395    5.2262 C   0  0  0  0  0  0  0  0  0  0  0  0
    3.0993   -5.9489    5.6212 C   0  0  0  0  0  0  0  0  0  0  0  0
    3.6372   -6.6940    6.6138 C   0  0  0  0  0  0  0  0  0  0  0  0
    4.8015   -6.3004    7.1676 C   0  0  0  0  0  0  0  0  0  0  0  0
    5.1717   -4.7738    6.2299 S   0  0  0  0  0  0  0  0  0  0  0  0
    2.7653   -4.6040    3.0595 C   0  0  0  0  0  0  0  0  0  0  0  0
    1.5241   -4.7380    2.5973 C   0  0  0  0  0  0  0  0  0  0  0  0
    1.2664   -5.5444    1.5550 C   0  0  0  0  0  0  0  0  0  0  0  0
    2.2786   -6.2272    0.9684 C   0  0  0  0  0  0  0  0  0  0  0  0
    3.7046   -5.6576    2.0041 S   0  0  0  0  0  0  0  0  0  0  0  0
    4.5404   -3.2272    3.7688 O   0  0  0  0  0  0  0  0  0  0  0  0
    1.1795   -3.2620    5.2390 O   0  0  0  0  0  0  0  0  0  0  0  0
    0.0622   -2.4028    5.4543 C   0  0  2  0  0  0  0  0  0  0  0  0
   -0.5313   -1.9771    4.1520 C   0  0  0  0  0  0  0  0  0  0  0  0
   -1.0718   -0.5951    4.1117 C   0  0  2  0  0  0  0  0  0  0  0  0
    0.0488    0.3434    3.7403 C   0  0  2  0  0  0  0  0  0  0  0  0
    0.5919    0.7309    5.1067 C   0  0  2  0  0  0  0  0  0  0  0  0
   -0.2860    0.0150    6.1118 C   0  0  2  0  0  0  0  0  0  0  0  0
    0.3516   -1.2999    6.4186 C   0  0  0  0  0  0  0  0  0  0  0  0
   -1.5331   -0.1038    5.3935 N   0  0  0  0  0  4  0  0  0  0  0  0
   -2.1247    1.1869    5.2112 C   0  0  0  0  0  0  0  0  0  0  0  0
   -2.4867   -0.9649    6.0161 C   0  0  0  0  0  0  0  0  0  0  0  0
    0.0709    1.6362    4.2184 O   0  0  0  0  0  0  0  0  0  0  0  0
  1  2  2  0
  2  3  1  0
  3  4  1  0
  4  5  2  0
  5  6  1  0
  6  7  2  0
  7  8  1  0
  3  9  1  0
  9 10  2  0
 10 11  1  0
 11 12  2  0
 12 13  1  0
  3 14  1  0
  2 15  1  0
 16 15  1  6
 16 17  1  0
 18 17  1  1
 18 19  1  0
 19 20  1  0
 20 21  1  0
 21 22  1  6
 21 23  1  0
 23 24  1  0
 23 25  1  0
 20 26  1  1
  8  4  1  0
 13  9  1  0
 22 16  1  0
 23 18  1  0
 19 26  1  1
M  CHG  1  23   1
M  END
$$$$
