
     RDKit          3D

 26 30  0  0  0  0  0  0  0  0999 V2000
    3.9046   -1.5248    3.5258 O   0  0  0  0  0  0  0  0  0  0  0  0
    3.3157   -2.4834    4.1325 C   0  0  0  0  0  0  0  0  0  0  0  0
    3.7161   -3.9062    3.8553 C   0  0  0  0  0  0  0  0  0  0  0  0
    3.9045   -4.6229    5.1683 C   0  0  0  0  0  0  0  0  0  0  0  0
    3.2128   -4.4895    6.3163 C   0  0  0  0  0  0  0  0  0  0  0  0
    3.5706   -5.2510    7.3756 C   0  0  0  0  0  0  0  0  0  0  0  0
    4.6006   -6.1104    7.2431 C   0  0  0  0  0  0  0  0  0  0  0  0
    5.1068   -5.8327    5.5072 S   0  0  0  0  0  0  0  0  0  0  0  0
    2.6341   -4.5958    3.1407 C   0  0  0  0  0  0  0  0  0  0  0  0
    1.3994   -4.9774    3.4600 C   0  0  0  0  0  0  0  0  0  0  0  0
    0.6320   -5.6248    2.5683 C   0  0  0  0  0  0  0  0  0  0  0  0
    1.1186   -5.8913    1.3326 C   0  0  0  0  0  0  0  0  0  0  0  0
    2.8096   -5.1496    1.4766 S   0  0  0  0  0  0  0  0  0  0  0  0
    4.9099   -3.9888    3.1857 O   0  0  0  0  0  0  0  0  0  0  0  0
    2.3346   -2.1473    5.0161 O   0  0  0  0  0  0  0  0  0  0  0  0
    1.4146   -1.0705    4.8522 C   0  0  2  0  0  0  0  0  0  0  0  0
    0.3441   -1.1318    5.8914 C   0  0  0  0  0  0  0  0  0  0  0  0
   -1.0054   -0.6962    5.4524 C   0  0  2  0  0  0  0  0  0  0  0  0
   -1.7187   -1.8844    4.8576 C   0  0  2  0  0  0  0  0  0  0  0  0
   -1.3416   -1.7669    3.3892 C   0  0  2  0  0  0  0  0  0  0  0  0
   -0.4930   -0.5169    3.2855 C   0  0  2  0  0  0  0  0  0  0  0  0
    0.9354   -0.9215    3.4457 C   0  0  0  0  0  0  0  0  0  0  0  0
   -0.9920    0.2792    4.3821 N   0  0  0  0  0  4  0  0  0  0  0  0
   -2.3350    0.6988    4.1187 C   0  0  0  0  0  0  0  0  0  0  0  0
   -0.1989    1.4289    4.6783 C   0  0  0  0  0  0  0  0  0  0  0  0
   -2.6352   -1.7180    3.8414 O   0  0  0  0  0  0  0  0  0  0  0  0
  1  2  2  0
  2  3  1  0
  3  4  1  0
  4  5  2  0
  5  6  1  0
  6  7  2  0
  7  8  1  0
  3  9  1  0
  9 10  2  0
 10 11  1  0
 11 12  2  0
 12 13  1  0
  3 14  1  0
  2 15  1  0
 16 15  1  6
 16 17  1  0
 18 17  1  6
 18 19  1  0
 19 20  1  0
 20 21  1  0
 21 22  1  1
 21 23  1  0
 23 24  1  0
 23 25  1  0
 20 26  1  6
  8  4  1  0
 13  9  1  0
 22 16  1  0
 23 18  1  0
 19 26  1  6
M  CHG  1  23   1
M  END
$$$$
