
     RDKit          3D

 26 30  0  0  0  0  0  0  0  0999 V2000
    4.1305   -1.8302    3.9267 O   0  0  0  0  0  0  0  0  0  0  0  0
    3.4718   -2.7859    4.4619 C   0  0  0  0  0  0  0  0  0  0  0  0
    3.8372   -4.2126    4.1576 C   0  0  0  0  0  0  0  0  0  0  0  0
    4.1548   -4.9195    5.4508 C   0  0  0  0  0  0  0  0  0  0  0  0
    3.5816   -4.7757    6.6611 C   0  0  0  0  0  0  0  0  0  0  0  0
    4.0423   -5.5299    7.6852 C   0  0  0  0  0  0  0  0  0  0  0  0
    5.0526   -6.3927    7.4573 C   0  0  0  0  0  0  0  0  0  0  0  0
    5.3830   -6.1296    5.6773 S   0  0  0  0  0  0  0  0  0  0  0  0
    2.6861   -4.9031    3.5617 C   0  0  0  0  0  0  0  0  0  0  0  0
    1.6140   -5.5227    4.0502 C   0  0  0  0  0  0  0  0  0  0  0  0
    0.7178   -6.0898    3.2265 C   0  0  0  0  0  0  0  0  0  0  0  0
    0.9064   -6.0304    1.8864 C   0  0  0  0  0  0  0  0  0  0  0  0
    2.4974   -5.0844    1.8187 S   0  0  0  0  0  0  0  0  0  0  0  0
    4.9570   -4.3056    3.3716 O   0  0  0  0  0  0  0  0  0  0  0  0
    2.4514   -2.4432    5.2972 O   0  0  0  0  0  0  0  0  0  0  0  0
    1.5860   -1.3238    5.1212 C   0  0  2  0  0  0  0  0  0  0  0  0
    0.3857   -1.4448    6.0011 C   0  0  0  0  0  0  0  0  0  0  0  0
   -0.8832   -0.9224    5.4350 C   0  0  2  0  0  0  0  0  0  0  0  0
   -1.5378   -2.0233    4.6388 C   0  0  2  0  0  0  0  0  0  0  0  0
   -0.9662   -1.7814    3.2507 C   0  0  2  0  0  0  0  0  0  0  0  0
   -0.0833   -0.5580    3.3813 C   0  0  2  0  0  0  0  0  0  0  0  0
    1.3016   -1.0262    3.6857 C   0  0  0  0  0  0  0  0  0  0  0  0
   -0.7055    0.1484    4.4763 N   0  0  0  0  0  4  0  0  0  0  0  0
   -1.9917    0.6382    4.0827 C   0  0  0  0  0  0  0  0  0  0  0  0
    0.0670    1.2363    4.9845 C   0  0  0  0  0  0  0  0  0  0  0  0
   -2.3070   -1.7296    3.5332 O   0  0  0  0  0  0  0  0  0  0  0  0
  1  2  2  0
  2  3  1  0
  3  4  1  0
  4  5  2  0
  5  6  1  0
  6  7  2  0
  7  8  1  0
  3  9  1  0
  9 10  2  0
 10 11  1  0
 11 12  2  0
 12 13  1  0
  3 14  1  0
  2 15  1  0
 16 15  1  6
 16 17  1  0
 18 17  1  6
 18 19  1  0
 19 20  1  0
 20 21  1  0
 21 22  1  1
 21 23  1  0
 23 24  1  0
 23 25  1  0
 20 26  1  6
  8  4  1  0
 13  9  1  0
 22 16  1  0
 23 18  1  0
 19 26  1  6
M  CHG  1  23   1
M  END
$$$$
