
     RDKit          3D

 26 30  0  0  0  0  0  0  0  0999 V2000
    3.9018   -2.3441    6.0806 O   0  0  0  0  0  0  0  0  0  0  0  0
    3.0323   -3.2436    5.8184 C   0  0  0  0  0  0  0  0  0  0  0  0
    3.4586   -4.6771    5.6613 C   0  0  0  0  0  0  0  0  0  0  0  0
    2.2360   -5.5234    5.4123 C   0  0  0  0  0  0  0  0  0  0  0  0
    1.6633   -6.4451    6.2104 C   0  0  0  0  0  0  0  0  0  0  0  0
    0.5571   -7.0839    5.7652 C   0  0  0  0  0  0  0  0  0  0  0  0
    0.0717   -6.7755    4.5460 C   0  0  0  0  0  0  0  0  0  0  0  0
    1.2507   -5.4965    3.9796 S   0  0  0  0  0  0  0  0  0  0  0  0
    4.3220   -4.8114    4.4809 C   0  0  0  0  0  0  0  0  0  0  0  0
    4.1060   -4.8752    3.1689 C   0  0  0  0  0  0  0  0  0  0  0  0
    5.1313   -5.0199    2.3138 C   0  0  0  0  0  0  0  0  0  0  0  0
    6.3965   -5.1013    2.7907 C   0  0  0  0  0  0  0  0  0  0  0  0
    6.0738   -4.9576    4.6089 S   0  0  0  0  0  0  0  0  0  0  0  0
    4.0549   -5.1688    6.7941 O   0  0  0  0  0  0  0  0  0  0  0  0
    1.7381   -2.8362    5.6935 O   0  0  0  0  0  0  0  0  0  0  0  0
    1.3178   -1.4932    5.4646 C   0  0  2  0  0  0  0  0  0  0  0  0
    0.1621   -1.1476    6.3448 C   0  0  0  0  0  0  0  0  0  0  0  0
   -0.8501   -0.2384    5.7513 C   0  0  2  0  0  0  0  0  0  0  0  0
   -1.8587   -1.0731    5.0027 C   0  0  2  0  0  0  0  0  0  0  0  0
   -1.2557   -1.1070    3.6073 C   0  0  2  0  0  0  0  0  0  0  0  0
    0.0015   -0.2665    3.6864 C   0  0  2  0  0  0  0  0  0  0  0  0
    1.1381   -1.1769    4.0163 C   0  0  0  0  0  0  0  0  0  0  0  0
   -0.3203    0.6597    4.7465 N   0  0  0  0  0  4  0  0  0  0  0  0
   -1.3580    1.5520    4.3268 C   0  0  0  0  0  0  0  0  0  0  0  0
    0.7906    1.4285    5.2084 C   0  0  0  0  0  0  0  0  0  0  0  0
   -2.4898   -0.5763    3.8824 O   0  0  0  0  0  0  0  0  0  0  0  0
  1  2  2  0
  2  3  1  0
  3  4  1  0
  4  5  2  0
  5  6  1  0
  6  7  2  0
  7  8  1  0
  3  9  1  0
  9 10  2  0
 10 11  1  0
 11 12  2  0
 12 13  1  0
  3 14  1  0
  2 15  1  0
 16 15  1  6
 16 17  1  0
 18 17  1  6
 18 19  1  0
 19 20  1  0
 20 21  1  0
 21 22  1  1
 21 23  1  0
 23 24  1  0
 23 25  1  0
 20 26  1  6
  8  4  1  0
 13  9  1  0
 22 16  1  0
 23 18  1  0
 19 26  1  6
M  CHG  1  23   1
M  END
$$$$
