
     RDKit          3D

 26 30  0  0  0  0  0  0  0  0999 V2000
    4.0599   -1.5423    3.5928 O   0  0  0  0  0  0  0  0  0  0  0  0
    3.4217   -2.5311    4.0916 C   0  0  0  0  0  0  0  0  0  0  0  0
    3.8659   -3.9372    3.7969 C   0  0  0  0  0  0  0  0  0  0  0  0
    4.0593   -4.6693    5.1007 C   0  0  0  0  0  0  0  0  0  0  0  0
    3.1905   -4.8421    6.1154 C   0  0  0  0  0  0  0  0  0  0  0  0
    3.5961   -5.5456    7.1972 C   0  0  0  0  0  0  0  0  0  0  0  0
    4.8480   -6.0449    7.2191 C   0  0  0  0  0  0  0  0  0  0  0  0
    5.5075   -5.4888    5.6058 S   0  0  0  0  0  0  0  0  0  0  0  0
    2.8125   -4.6457    3.0583 C   0  0  0  0  0  0  0  0  0  0  0  0
    1.5600   -5.0037    3.3321 C   0  0  0  0  0  0  0  0  0  0  0  0
    0.8299   -5.6797    2.4303 C   0  0  0  0  0  0  0  0  0  0  0  0
    1.3728   -5.9998    1.2313 C   0  0  0  0  0  0  0  0  0  0  0  0
    3.0625   -5.2672    1.4281 S   0  0  0  0  0  0  0  0  0  0  0  0
    5.0694   -3.9751    3.1408 O   0  0  0  0  0  0  0  0  0  0  0  0
    2.3490   -2.2415    4.8802 O   0  0  0  0  0  0  0  0  0  0  0  0
    1.5468   -1.0672    4.7777 C   0  0  2  0  0  0  0  0  0  0  0  0
    0.7189   -0.8882    6.0074 C   0  0  0  0  0  0  0  0  0  0  0  0
   -0.6327   -0.3120    5.7955 C   0  0  2  0  0  0  0  0  0  0  0  0
   -1.5884   -1.4389    5.4935 C   0  0  2  0  0  0  0  0  0  0  0  0
   -1.5170   -1.5052    3.9761 C   0  0  2  0  0  0  0  0  0  0  0  0
   -0.5695   -0.3980    3.5642 C   0  0  2  0  0  0  0  0  0  0  0  0
    0.8036   -0.9793    3.4855 C   0  0  0  0  0  0  0  0  0  0  0  0
   -0.7309    0.5533    4.6385 N   0  0  0  0  0  4  0  0  0  0  0  0
   -2.0412    1.1286    4.5981 C   0  0  0  0  0  0  0  0  0  0  0  0
    0.2350    1.6048    4.6384 C   0  0  0  0  0  0  0  0  0  0  0  0
   -2.6721   -1.2390    4.6654 O   0  0  0  0  0  0  0  0  0  0  0  0
  1  2  2  0
  2  3  1  0
  3  4  1  0
  4  5  2  0
  5  6  1  0
  6  7  2  0
  7  8  1  0
  3  9  1  0
  9 10  2  0
 10 11  1  0
 11 12  2  0
 12 13  1  0
  3 14  1  0
  2 15  1  0
 16 15  1  1
 16 17  1  0
 18 17  1  6
 18 19  1  0
 19 20  1  0
 20 21  1  0
 21 22  1  1
 21 23  1  0
 23 24  1  0
 23 25  1  0
 20 26  1  6
  8  4  1  0
 13  9  1  0
 22 16  1  0
 23 18  1  0
 19 26  1  6
M  CHG  1  23   1
M  END
$$$$
