
     RDKit          3D

 26 30  0  0  0  0  0  0  0  0999 V2000
    4.2090   -1.7866    3.7104 O   0  0  0  0  0  0  0  0  0  0  0  0
    3.5721   -2.7342    4.2852 C   0  0  0  0  0  0  0  0  0  0  0  0
    3.9108   -4.1653    3.9711 C   0  0  0  0  0  0  0  0  0  0  0  0
    4.0576   -4.9254    5.2649 C   0  0  0  0  0  0  0  0  0  0  0  0
    3.1533   -5.6865    5.9109 C   0  0  0  0  0  0  0  0  0  0  0  0
    3.5204   -6.2769    7.0712 C   0  0  0  0  0  0  0  0  0  0  0  0
    4.7710   -6.0826    7.5351 C   0  0  0  0  0  0  0  0  0  0  0  0
    5.4874   -4.9924    6.2525 S   0  0  0  0  0  0  0  0  0  0  0  0
    2.8044   -4.7860    3.2311 C   0  0  0  0  0  0  0  0  0  0  0  0
    1.5332   -5.0634    3.5120 C   0  0  0  0  0  0  0  0  0  0  0  0
    0.7498   -5.6705    2.6059 C   0  0  0  0  0  0  0  0  0  0  0  0
    1.2579   -6.0032    1.3951 C   0  0  0  0  0  0  0  0  0  0  0  0
    2.9954   -5.3911    1.5867 S   0  0  0  0  0  0  0  0  0  0  0  0
    5.1047   -4.2828    3.3068 O   0  0  0  0  0  0  0  0  0  0  0  0
    2.5991   -2.3789    5.1702 O   0  0  0  0  0  0  0  0  0  0  0  0
    1.6941   -1.2899    5.0032 C   0  0  2  0  0  0  0  0  0  0  0  0
    0.6783   -1.2789    6.0976 C   0  0  0  0  0  0  0  0  0  0  0  0
   -0.6830   -0.8330    5.7082 C   0  0  2  0  0  0  0  0  0  0  0  0
   -1.4507   -2.0305    5.2071 C   0  0  2  0  0  0  0  0  0  0  0  0
   -1.1484   -1.9891    3.7175 C   0  0  2  0  0  0  0  0  0  0  0  0
   -0.2808   -0.7649    3.5119 C   0  0  2  0  0  0  0  0  0  0  0  0
    1.1454   -1.1945    3.6176 C   0  0  0  0  0  0  0  0  0  0  0  0
   -0.7054    0.0918    4.5940 N   0  0  0  0  0  4  0  0  0  0  0  0
   -2.0514    0.5297    4.3803 C   0  0  0  0  0  0  0  0  0  0  0  0
    0.1255    1.2353    4.7950 C   0  0  0  0  0  0  0  0  0  0  0  0
   -2.4153   -1.8899    4.2325 O   0  0  0  0  0  0  0  0  0  0  0  0
  1  2  2  0
  2  3  1  0
  3  4  1  0
  4  5  2  0
  5  6  1  0
  6  7  2  0
  7  8  1  0
  3  9  1  0
  9 10  2  0
 10 11  1  0
 11 12  2  0
 12 13  1  0
  3 14  1  0
  2 15  1  0
 16 15  1  6
 16 17  1  0
 18 17  1  6
 18 19  1  0
 19 20  1  0
 20 21  1  0
 21 22  1  1
 21 23  1  0
 23 24  1  0
 23 25  1  0
 20 26  1  6
  8  4  1  0
 13  9  1  0
 22 16  1  0
 23 18  1  0
 19 26  1  6
M  CHG  1  23   1
M  END
$$$$
