
     RDKit          3D

 26 30  0  0  0  0  0  0  0  0999 V2000
    3.9084   -1.5697    4.0118 O   0  0  0  0  0  0  0  0  0  0  0  0
    3.1984   -2.6303    3.9433 C   0  0  0  0  0  0  0  0  0  0  0  0
    3.8527   -3.9553    3.6638 C   0  0  0  0  0  0  0  0  0  0  0  0
    4.0341   -4.6923    4.9665 C   0  0  0  0  0  0  0  0  0  0  0  0
    3.7463   -4.2884    6.2188 C   0  0  0  0  0  0  0  0  0  0  0  0
    3.9997   -5.1355    7.2425 C   0  0  0  0  0  0  0  0  0  0  0  0
    4.5279   -6.3459    6.9724 C   0  0  0  0  0  0  0  0  0  0  0  0
    4.6818   -6.2957    5.1502 S   0  0  0  0  0  0  0  0  0  0  0  0
    2.9708   -4.7767    2.8244 C   0  0  0  0  0  0  0  0  0  0  0  0
    1.6767   -5.0871    2.8547 C   0  0  0  0  0  0  0  0  0  0  0  0
    1.1477   -5.9027    1.9283 C   0  0  0  0  0  0  0  0  0  0  0  0
    1.9380   -6.4137    0.9541 C   0  0  0  0  0  0  0  0  0  0  0  0
    3.5637   -5.6561    1.4168 S   0  0  0  0  0  0  0  0  0  0  0  0
    5.1007   -3.8126    3.1139 O   0  0  0  0  0  0  0  0  0  0  0  0
    1.8564   -2.4906    4.1324 O   0  0  0  0  0  0  0  0  0  0  0  0
    1.1729   -1.2486    4.2847 C   0  0  2  0  0  0  0  0  0  0  0  0
    0.9970   -0.9201    5.7306 C   0  0  0  0  0  0  0  0  0  0  0  0
   -0.2649   -0.2227    6.0837 C   0  0  2  0  0  0  0  0  0  0  0  0
   -1.3269   -1.2620    6.3415 C   0  0  2  0  0  0  0  0  0  0  0  0
   -1.9471   -1.4177    4.9620 C   0  0  2  0  0  0  0  0  0  0  0  0
   -1.2134   -0.4360    4.0724 C   0  0  2  0  0  0  0  0  0  0  0  0
   -0.0626   -1.1565    3.4509 C   0  0  0  0  0  0  0  0  0  0  0  0
   -0.8134    0.5839    5.0132 N   0  0  0  0  0  4  0  0  0  0  0  0
   -1.9617    1.2856    5.5013 C   0  0  0  0  0  0  0  0  0  0  0  0
    0.1175    1.5307    4.4884 C   0  0  0  0  0  0  0  0  0  0  0  0
   -2.6508   -0.9990    6.0618 O   0  0  0  0  0  0  0  0  0  0  0  0
  1  2  2  0
  2  3  1  0
  3  4  1  0
  4  5  2  0
  5  6  1  0
  6  7  2  0
  7  8  1  0
  3  9  1  0
  9 10  2  0
 10 11  1  0
 11 12  2  0
 12 13  1  0
  3 14  1  0
  2 15  1  0
 16 15  1  1
 16 17  1  0
 18 17  1  6
 18 19  1  0
 19 20  1  0
 20 21  1  0
 21 22  1  1
 21 23  1  0
 23 24  1  0
 23 25  1  0
 20 26  1  1
  8  4  1  0
 13  9  1  0
 22 16  1  0
 23 18  1  0
 19 26  1  1
M  CHG  1  23   1
M  END
$$$$
