
     RDKit          3D

 26 30  0  0  0  0  0  0  0  0999 V2000
    3.9949   -1.5501    4.2356 O   0  0  0  0  0  0  0  0  0  0  0  0
    3.2816   -2.5803    3.9832 C   0  0  0  0  0  0  0  0  0  0  0  0
    3.9396   -3.8625    3.5539 C   0  0  0  0  0  0  0  0  0  0  0  0
    4.2350   -4.6910    4.7784 C   0  0  0  0  0  0  0  0  0  0  0  0
    3.7443   -4.5677    6.0267 C   0  0  0  0  0  0  0  0  0  0  0  0
    4.1625   -5.4405    6.9718 C   0  0  0  0  0  0  0  0  0  0  0  0
    5.0498   -6.3962    6.6306 C   0  0  0  0  0  0  0  0  0  0  0  0
    5.3197   -6.0481    4.8550 S   0  0  0  0  0  0  0  0  0  0  0  0
    3.0133   -4.6410    2.7214 C   0  0  0  0  0  0  0  0  0  0  0  0
    1.8889   -5.3140    2.9552 C   0  0  0  0  0  0  0  0  0  0  0  0
    1.2592   -5.9592    1.9601 C   0  0  0  0  0  0  0  0  0  0  0  0
    1.7725   -5.9243    0.7071 C   0  0  0  0  0  0  0  0  0  0  0  0
    3.2756   -4.8811    0.9952 S   0  0  0  0  0  0  0  0  0  0  0  0
    5.1389   -3.6458    2.9253 O   0  0  0  0  0  0  0  0  0  0  0  0
    1.9326   -2.4486    4.1219 O   0  0  0  0  0  0  0  0  0  0  0  0
    1.2460   -1.2203    4.3513 C   0  0  2  0  0  0  0  0  0  0  0  0
    0.7705   -1.1406    5.7645 C   0  0  0  0  0  0  0  0  0  0  0  0
   -0.5298   -0.4545    5.9688 C   0  0  2  0  0  0  0  0  0  0  0  0
   -1.6337   -1.4696    5.8091 C   0  0  2  0  0  0  0  0  0  0  0  0
   -1.9483   -1.3519    4.3261 C   0  0  2  0  0  0  0  0  0  0  0  0
   -1.0316   -0.2673    3.8001 C   0  0  2  0  0  0  0  0  0  0  0  0
    0.2169   -0.9239    3.3105 C   0  0  0  0  0  0  0  0  0  0  0  0
   -0.8294    0.5522    4.9717 N   0  0  0  0  0  4  0  0  0  0  0  0
   -2.0475    1.2134    5.3301 C   0  0  0  0  0  0  0  0  0  0  0  0
    0.2020    1.5293    4.8310 C   0  0  0  0  0  0  0  0  0  0  0  0
   -2.8650   -1.0974    5.3135 O   0  0  0  0  0  0  0  0  0  0  0  0
  1  2  2  0
  2  3  1  0
  3  4  1  0
  4  5  2  0
  5  6  1  0
  6  7  2  0
  7  8  1  0
  3  9  1  0
  9 10  2  0
 10 11  1  0
 11 12  2  0
 12 13  1  0
  3 14  1  0
  2 15  1  0
 16 15  1  6
 16 17  1  0
 18 17  1  6
 18 19  1  0
 19 20  1  0
 20 21  1  0
 21 22  1  1
 21 23  1  0
 23 24  1  0
 23 25  1  0
 20 26  1  1
  8  4  1  0
 13  9  1  0
 22 16  1  0
 23 18  1  0
 19 26  1  1
M  CHG  1  23   1
M  END
$$$$
