
     RDKit          3D

 26 30  0  0  0  0  0  0  0  0999 V2000
    4.3557   -1.5318    3.4862 O   0  0  0  0  0  0  0  0  0  0  0  0
    3.8096   -2.5268    4.0740 C   0  0  0  0  0  0  0  0  0  0  0  0
    4.2419   -3.9274    3.7378 C   0  0  0  0  0  0  0  0  0  0  0  0
    4.4829   -4.6828    5.0200 C   0  0  0  0  0  0  0  0  0  0  0  0
    4.0302   -4.4178    6.2607 C   0  0  0  0  0  0  0  0  0  0  0  0
    4.3840   -5.2503    7.2664 C   0  0  0  0  0  0  0  0  0  0  0  0
    5.1720   -6.3087    6.9908 C   0  0  0  0  0  0  0  0  0  0  0  0
    5.4383   -6.1258    5.1901 S   0  0  0  0  0  0  0  0  0  0  0  0
    3.1616   -4.6225    3.0259 C   0  0  0  0  0  0  0  0  0  0  0  0
    2.0307   -5.2181    3.3980 C   0  0  0  0  0  0  0  0  0  0  0  0
    1.2324   -5.7985    2.4875 C   0  0  0  0  0  0  0  0  0  0  0  0
    1.5808   -5.7771    1.1787 C   0  0  0  0  0  0  0  0  0  0  0  0
    3.1806   -4.8490    1.2781 S   0  0  0  0  0  0  0  0  0  0  0  0
    5.4203   -3.9532    3.0370 O   0  0  0  0  0  0  0  0  0  0  0  0
    2.8430   -2.2490    4.9931 O   0  0  0  0  0  0  0  0  0  0  0  0
    1.9530   -1.1364    4.9390 C   0  0  2  0  0  0  0  0  0  0  0  0
    1.0168   -1.1560    6.1021 C   0  0  0  0  0  0  0  0  0  0  0  0
   -0.3581   -0.6670    5.8305 C   0  0  2  0  0  0  0  0  0  0  0  0
   -1.1855   -1.8254    5.3326 C   0  0  2  0  0  0  0  0  0  0  0  0
   -0.9874   -1.7218    3.8286 C   0  0  2  0  0  0  0  0  0  0  0  0
   -0.1093   -0.5063    3.6163 C   0  0  2  0  0  0  0  0  0  0  0  0
    1.3109   -0.9674    3.6015 C   0  0  0  0  0  0  0  0  0  0  0  0
   -0.4379    0.3080    4.7626 N   0  0  0  0  0  4  0  0  0  0  0  0
   -1.7856    0.7808    4.6645 C   0  0  0  0  0  0  0  0  0  0  0  0
    0.4303    1.4251    4.9545 C   0  0  0  0  0  0  0  0  0  0  0  0
   -2.2126   -1.6220    4.4361 O   0  0  0  0  0  0  0  0  0  0  0  0
  1  2  2  0
  2  3  1  0
  3  4  1  0
  4  5  2  0
  5  6  1  0
  6  7  2  0
  7  8  1  0
  3  9  1  0
  9 10  2  0
 10 11  1  0
 11 12  2  0
 12 13  1  0
  3 14  1  0
  2 15  1  0
 16 15  1  6
 16 17  1  0
 18 17  1  6
 18 19  1  0
 19 20  1  0
 20 21  1  0
 21 22  1  1
 21 23  1  0
 23 24  1  0
 23 25  1  0
 20 26  1  6
  8  4  1  0
 13  9  1  0
 22 16  1  0
 23 18  1  0
 19 26  1  6
M  CHG  1  23   1
M  END
$$$$
