
     RDKit          3D

 26 30  0  0  0  0  0  0  0  0999 V2000
    4.2058   -1.7006    3.7295 O   0  0  0  0  0  0  0  0  0  0  0  0
    3.5680   -2.7692    4.0212 C   0  0  0  0  0  0  0  0  0  0  0  0
    4.2578   -4.1027    3.9352 C   0  0  0  0  0  0  0  0  0  0  0  0
    4.1897   -4.7732    5.2839 C   0  0  0  0  0  0  0  0  0  0  0  0
    3.3438   -4.5420    6.3063 C   0  0  0  0  0  0  0  0  0  0  0  0
    3.4778   -5.2800    7.4320 C   0  0  0  0  0  0  0  0  0  0  0  0
    4.4477   -6.2145    7.4880 C   0  0  0  0  0  0  0  0  0  0  0  0
    5.2311   -6.0486    5.8432 S   0  0  0  0  0  0  0  0  0  0  0  0
    3.5452   -4.9696    2.9878 C   0  0  0  0  0  0  0  0  0  0  0  0
    3.0035   -6.1834    3.0590 C   0  0  0  0  0  0  0  0  0  0  0  0
    2.4174   -6.7344    1.9837 C   0  0  0  0  0  0  0  0  0  0  0  0
    2.3767   -6.0485    0.8164 C   0  0  0  0  0  0  0  0  0  0  0  0
    3.2516   -4.4943    1.3161 S   0  0  0  0  0  0  0  0  0  0  0  0
    5.5872   -3.9805    3.6219 O   0  0  0  0  0  0  0  0  0  0  0  0
    2.2672   -2.6297    4.4018 O   0  0  0  0  0  0  0  0  0  0  0  0
    1.5183   -1.4180    4.3404 C   0  0  2  0  0  0  0  0  0  0  0  0
    1.0267   -1.0353    5.6974 C   0  0  0  0  0  0  0  0  0  0  0  0
   -0.3079   -0.3870    5.7397 C   0  0  2  0  0  0  0  0  0  0  0  0
   -1.3585   -1.4657    5.8242 C   0  0  2  0  0  0  0  0  0  0  0  0
   -1.6651   -1.7129    4.3556 C   0  0  2  0  0  0  0  0  0  0  0  0
   -0.7988   -0.7359    3.5885 C   0  0  2  0  0  0  0  0  0  0  0  0
    0.4852   -1.4246    3.2621 C   0  0  0  0  0  0  0  0  0  0  0  0
   -0.6482    0.3432    4.5362 N   0  0  0  0  0  4  0  0  0  0  0  0
   -1.9008    1.0074    4.7339 C   0  0  0  0  0  0  0  0  0  0  0  0
    0.3346    1.3114    4.1686 C   0  0  0  0  0  0  0  0  0  0  0  0
   -2.6022   -1.2818    5.2590 O   0  0  0  0  0  0  0  0  0  0  0  0
  1  2  2  0
  2  3  1  0
  3  4  1  0
  4  5  2  0
  5  6  1  0
  6  7  2  0
  7  8  1  0
  3  9  1  0
  9 10  2  0
 10 11  1  0
 11 12  2  0
 12 13  1  0
  3 14  1  0
  2 15  1  0
 16 15  1  1
 16 17  1  0
 18 17  1  6
 18 19  1  0
 19 20  1  0
 20 21  1  0
 21 22  1  1
 21 23  1  0
 23 24  1  0
 23 25  1  0
 20 26  1  1
  8  4  1  0
 13  9  1  0
 22 16  1  0
 23 18  1  0
 19 26  1  1
M  CHG  1  23   1
M  END
$$$$
