
     RDKit          3D

 26 30  0  0  0  0  0  0  0  0999 V2000
    4.3230   -1.5058    4.3835 O   0  0  0  0  0  0  0  0  0  0  0  0
    3.5986   -2.5499    4.5207 C   0  0  0  0  0  0  0  0  0  0  0  0
    4.1503   -3.9001    4.1544 C   0  0  0  0  0  0  0  0  0  0  0  0
    4.3613   -4.6978    5.4162 C   0  0  0  0  0  0  0  0  0  0  0  0
    4.0036   -4.3996    6.6801 C   0  0  0  0  0  0  0  0  0  0  0  0
    4.3038   -5.2830    7.6595 C   0  0  0  0  0  0  0  0  0  0  0  0
    4.9463   -6.4229    7.3356 C   0  0  0  0  0  0  0  0  0  0  0  0
    5.1455   -6.2461    5.5256 S   0  0  0  0  0  0  0  0  0  0  0  0
    3.1704   -4.6325    3.3417 C   0  0  0  0  0  0  0  0  0  0  0  0
    1.9059   -4.4174    2.9858 C   0  0  0  0  0  0  0  0  0  0  0  0
    1.2492   -5.3079    2.2249 C   0  0  0  0  0  0  0  0  0  0  0  0
    1.8794   -6.4348    1.8155 C   0  0  0  0  0  0  0  0  0  0  0  0
    3.5426   -6.1829    2.5907 S   0  0  0  0  0  0  0  0  0  0  0  0
    5.3703   -3.8120    3.5346 O   0  0  0  0  0  0  0  0  0  0  0  0
    2.3372   -2.3696    5.0030 O   0  0  0  0  0  0  0  0  0  0  0  0
    1.6018   -1.1495    4.9451 C   0  0  2  0  0  0  0  0  0  0  0  0
    0.7100   -1.0171    6.1353 C   0  0  0  0  0  0  0  0  0  0  0  0
   -0.5959   -0.3548    5.8911 C   0  0  2  0  0  0  0  0  0  0  0  0
   -1.5859   -1.4032    5.4493 C   0  0  2  0  0  0  0  0  0  0  0  0
   -1.4251   -1.3614    3.9379 C   0  0  2  0  0  0  0  0  0  0  0  0
   -0.4006   -0.2795    3.6671 C   0  0  2  0  0  0  0  0  0  0  0  0
    0.9444   -0.9267    3.6229 C   0  0  0  0  0  0  0  0  0  0  0  0
   -0.5802    0.5974    4.8002 N   0  0  0  0  0  4  0  0  0  0  0  0
   -1.8554    1.2439    4.7290 C   0  0  0  0  0  0  0  0  0  0  0  0
    0.4347    1.5924    4.9362 C   0  0  0  0  0  0  0  0  0  0  0  0
   -2.6056   -1.0847    4.5782 O   0  0  0  0  0  0  0  0  0  0  0  0
  1  2  2  0
  2  3  1  0
  3  4  1  0
  4  5  2  0
  5  6  1  0
  6  7  2  0
  7  8  1  0
  3  9  1  0
  9 10  2  0
 10 11  1  0
 11 12  2  0
 12 13  1  0
  3 14  1  0
  2 15  1  0
 16 15  1  6
 16 17  1  0
 18 17  1  6
 18 19  1  0
 19 20  1  0
 20 21  1  0
 21 22  1  1
 21 23  1  0
 23 24  1  0
 23 25  1  0
 20 26  1  6
  8  4  1  0
 13  9  1  0
 22 16  1  0
 23 18  1  0
 19 26  1  6
M  CHG  1  23   1
M  END
$$$$
