
     RDKit          3D

 26 30  0  0  0  0  0  0  0  0999 V2000
    3.6145   -2.1997    4.0012 O   0  0  0  0  0  0  0  0  0  0  0  0
    2.7926   -2.6322    4.8794 C   0  0  0  0  0  0  0  0  0  0  0  0
    2.6150   -4.1123    5.0774 C   0  0  0  0  0  0  0  0  0  0  0  0
    1.8627   -4.6738    3.8976 C   0  0  0  0  0  0  0  0  0  0  0  0
    0.8486   -5.5602    3.8799 C   0  0  0  0  0  0  0  0  0  0  0  0
    0.3270   -5.9176    2.6841 C   0  0  0  0  0  0  0  0  0  0  0  0
    0.8389   -5.3761    1.5608 C   0  0  0  0  0  0  0  0  0  0  0  0
    2.1478   -4.2853    2.2268 S   0  0  0  0  0  0  0  0  0  0  0  0
    3.9277   -4.7704    5.1028 C   0  0  0  0  0  0  0  0  0  0  0  0
    4.8302   -5.0166    6.0498 C   0  0  0  0  0  0  0  0  0  0  0  0
    5.9799   -5.6432    5.7519 C   0  0  0  0  0  0  0  0  0  0  0  0
    6.2231   -6.0285    4.4763 C   0  0  0  0  0  0  0  0  0  0  0  0
    4.6727   -5.4389    3.6521 S   0  0  0  0  0  0  0  0  0  0  0  0
    1.8722   -4.4017    6.1931 O   0  0  0  0  0  0  0  0  0  0  0  0
    2.1096   -1.6997    5.6008 O   0  0  0  0  0  0  0  0  0  0  0  0
    1.2890   -0.6728    5.0485 C   0  0  2  0  0  0  0  0  0  0  0  0
    0.0845   -0.4477    5.9017 C   0  0  0  0  0  0  0  0  0  0  0  0
   -1.1625   -0.0985    5.1760 C   0  0  2  0  0  0  0  0  0  0  0  0
   -1.8596   -1.3775    4.7852 C   0  0  2  0  0  0  0  0  0  0  0  0
   -1.2782   -1.6357    3.4042 C   0  0  2  0  0  0  0  0  0  0  0  0
   -0.3477   -0.4727    3.1300 C   0  0  2  0  0  0  0  0  0  0  0  0
    1.0175   -0.8627    3.5924 C   0  0  0  0  0  0  0  0  0  0  0  0
   -0.9423    0.5821    3.9169 N   0  0  0  0  0  4  0  0  0  0  0  0
   -2.2080    0.9590    3.3645 C   0  0  0  0  0  0  0  0  0  0  0  0
   -0.1278    1.7480    4.0423 C   0  0  0  0  0  0  0  0  0  0  0  0
   -2.6160   -1.4428    3.6346 O   0  0  0  0  0  0  0  0  0  0  0  0
  1  2  2  0
  2  3  1  0
  3  4  1  0
  4  5  2  0
  5  6  1  0
  6  7  2  0
  7  8  1  0
  3  9  1  0
  9 10  2  0
 10 11  1  0
 11 12  2  0
 12 13  1  0
  3 14  1  0
  2 15  1  0
 16 15  1  1
 16 17  1  0
 18 17  1  6
 18 19  1  0
 19 20  1  0
 20 21  1  0
 21 22  1  1
 21 23  1  0
 23 24  1  0
 23 25  1  0
 20 26  1  6
  8  4  1  0
 13  9  1  0
 22 16  1  0
 23 18  1  0
 19 26  1  6
M  CHG  1  23   1
M  END
$$$$
