
     RDKit          3D

 21 22  0  0  0  0  0  0  0  0999 V2000
   -0.2595   -0.4827   10.6125 C   0  0  0  0  0  0  0  0  0  0  0  0
    0.7055    0.6549   10.4550 C   0  0  0  0  0  0  0  0  0  0  0  0
    2.0121    0.3083   11.1523 C   0  0  0  0  0  0  0  0  0  0  0  0
    0.1542    1.9160   11.0854 C   0  0  0  0  0  0  0  0  0  0  0  0
    1.0232    0.9518    9.0800 N   0  0  0  0  0  0  0  0  0  0  0  0
   -0.0780    1.5714    8.3764 C   0  0  0  0  0  0  0  0  0  0  0  0
    0.3705    1.7586    6.9316 C   0  0  0  0  0  0  0  0  0  0  0  0
   -0.5746    2.6039    6.1539 C   0  0  0  0  0  0  0  0  0  0  0  0
   -0.7677    3.8364    6.7254 O   0  0  0  0  0  0  0  0  0  0  0  0
   -0.9832    5.0677    6.2166 C   0  0  0  0  0  0  0  0  0  0  0  0
   -0.6748    5.4676    4.9386 C   0  0  0  0  0  0  0  0  0  0  0  0
   -0.9541    6.7694    4.5603 C   0  0  0  0  0  0  0  0  0  0  0  0
   -1.5281    7.6584    5.4350 C   0  0  0  0  0  0  0  0  0  0  0  0
   -1.8508    7.2799    6.7388 C   0  0  0  0  0  0  0  0  0  0  0  0
   -1.5765    6.0001    7.1098 C   0  0  0  0  0  0  0  0  0  0  0  0
   -2.0082    5.8561    8.5195 C   0  0  0  0  0  0  0  0  0  0  0  0
   -2.5384    7.1879    8.8572 C   0  0  0  0  0  0  0  0  0  0  0  0
   -2.4356    7.9612    7.8389 N   0  0  0  0  0  0  0  0  0  0  0  0
   -3.0884    7.5299   10.1677 C   0  0  0  0  0  0  0  0  0  0  0  0
   -3.5387    7.7877   11.2012 N   0  0  0  0  0  0  0  0  0  0  0  0
    0.3110    0.4679    6.3425 O   0  0  0  0  0  0  0  0  0  0  0  0
  1  2  1  0
  2  3  1  0
  2  4  1  0
  2  5  1  0
  5  6  1  0
  6  7  1  0
  7  8  1  0
  8  9  1  0
  9 10  1  0
 10 11  2  0
 11 12  1  0
 12 13  2  0
 13 14  1  0
 14 15  2  0
 15 16  1  0
 16 17  1  0
 17 18  2  0
 17 19  1  0
 19 20  3  0
  7 21  1  0
 15 10  1  0
 18 14  1  0
M  END
$$$$
