
     RDKit          3D

 21 22  0  0  0  0  0  0  0  0999 V2000
   -0.7028    1.1240   11.8006 C   0  0  0  0  0  0  0  0  0  0  0  0
   -0.0239    0.4268   10.6591 C   0  0  0  0  0  0  0  0  0  0  0  0
   -0.8464   -0.7844   10.2467 C   0  0  0  0  0  0  0  0  0  0  0  0
    1.3522   -0.0541   11.0674 C   0  0  0  0  0  0  0  0  0  0  0  0
    0.1280    1.2558    9.4889 N   0  0  0  0  0  0  0  0  0  0  0  0
    0.5177    0.5000    8.3190 C   0  0  0  0  0  0  0  0  0  0  0  0
    0.6687    1.4992    7.1778 C   0  0  0  0  0  0  0  0  0  0  0  0
   -0.5876    2.2525    6.9194 C   0  0  0  0  0  0  0  0  0  0  0  0
   -0.4555    3.5947    7.1722 O   0  0  0  0  0  0  0  0  0  0  0  0
   -0.8027    4.7033    6.4853 C   0  0  0  0  0  0  0  0  0  0  0  0
   -0.6171    4.8971    5.1376 C   0  0  0  0  0  0  0  0  0  0  0  0
   -1.0242    6.0932    4.5724 C   0  0  0  0  0  0  0  0  0  0  0  0
   -1.6041    7.0795    5.3314 C   0  0  0  0  0  0  0  0  0  0  0  0
   -1.8037    6.9102    6.7021 C   0  0  0  0  0  0  0  0  0  0  0  0
   -1.4039    5.7342    7.2568 C   0  0  0  0  0  0  0  0  0  0  0  0
   -1.7231    5.8064    8.7015 C   0  0  0  0  0  0  0  0  0  0  0  0
   -2.3319    7.1384    8.8556 C   0  0  0  0  0  0  0  0  0  0  0  0
   -2.3620    7.7303    7.7179 N   0  0  0  0  0  0  0  0  0  0  0  0
   -2.8141    7.6635   10.1318 C   0  0  0  0  0  0  0  0  0  0  0  0
   -3.1914    8.0976   11.1350 N   0  0  0  0  0  0  0  0  0  0  0  0
    0.8990    0.7185    6.0141 O   0  0  0  0  0  0  0  0  0  0  0  0
  1  2  1  0
  2  3  1  0
  2  4  1  0
  2  5  1  0
  5  6  1  0
  6  7  1  0
  7  8  1  0
  8  9  1  0
  9 10  1  0
 10 11  2  0
 11 12  1  0
 12 13  2  0
 13 14  1  0
 14 15  2  0
 15 16  1  0
 16 17  1  0
 17 18  2  0
 17 19  1  0
 19 20  3  0
  7 21  1  0
 15 10  1  0
 18 14  1  0
M  END
$$$$
