
     RDKit          3D

 21 22  0  0  0  0  0  0  0  0999 V2000
    2.3079    0.3046   10.7578 C   0  0  0  0  0  0  0  0  0  0  0  0
    1.5302   -0.7005    9.9608 C   0  0  0  0  0  0  0  0  0  0  0  0
    0.8923   -1.7084   10.9046 C   0  0  0  0  0  0  0  0  0  0  0  0
    2.4402   -1.4521    9.0128 C   0  0  0  0  0  0  0  0  0  0  0  0
    0.4670   -0.1163    9.1811 N   0  0  0  0  0  0  0  0  0  0  0  0
    0.8380    1.1551    8.5998 C   0  0  0  0  0  0  0  0  0  0  0  0
   -0.3494    1.6229    7.7663 C   0  0  0  0  0  0  0  0  0  0  0  0
    0.0038    2.7562    6.8700 C   0  0  0  0  0  0  0  0  0  0  0  0
   -0.8781    3.8022    6.9752 O   0  0  0  0  0  0  0  0  0  0  0  0
   -1.0452    4.9443    6.2758 C   0  0  0  0  0  0  0  0  0  0  0  0
   -0.6109    5.1630    4.9906 C   0  0  0  0  0  0  0  0  0  0  0  0
   -0.8549    6.3924    4.4032 C   0  0  0  0  0  0  0  0  0  0  0  0
   -1.5169    7.3869    5.0797 C   0  0  0  0  0  0  0  0  0  0  0  0
   -1.9680    7.1927    6.3859 C   0  0  0  0  0  0  0  0  0  0  0  0
   -1.7284    5.9841    6.9624 C   0  0  0  0  0  0  0  0  0  0  0  0
   -2.2994    6.0352    8.3283 C   0  0  0  0  0  0  0  0  0  0  0  0
   -2.8651    7.3920    8.4167 C   0  0  0  0  0  0  0  0  0  0  0  0
   -2.6628    8.0137    7.3130 N   0  0  0  0  0  0  0  0  0  0  0  0
   -3.5454    7.9078    9.6033 C   0  0  0  0  0  0  0  0  0  0  0  0
   -4.1013    8.3128   10.5329 N   0  0  0  0  0  0  0  0  0  0  0  0
   -1.2884    2.1422    8.6964 O   0  0  0  0  0  0  0  0  0  0  0  0
  1  2  1  0
  2  3  1  0
  2  4  1  0
  2  5  1  0
  5  6  1  0
  6  7  1  0
  7  8  1  0
  8  9  1  0
  9 10  1  0
 10 11  2  0
 11 12  1  0
 12 13  2  0
 13 14  1  0
 14 15  2  0
 15 16  1  0
 16 17  1  0
 17 18  2  0
 17 19  1  0
 19 20  3  0
  7 21  1  0
 15 10  1  0
 18 14  1  0
M  END
$$$$
