
     RDKit          3D

 21 22  0  0  0  0  0  0  0  0999 V2000
    1.1207   -1.8028    8.4310 C   0  0  0  0  0  0  0  0  0  0  0  0
    1.7290   -0.5870    9.0651 C   0  0  0  0  0  0  0  0  0  0  0  0
    3.0944   -0.3258    8.4479 C   0  0  0  0  0  0  0  0  0  0  0  0
    1.9157   -0.7955   10.5528 C   0  0  0  0  0  0  0  0  0  0  0  0
    0.9442    0.6090    8.8825 N   0  0  0  0  0  0  0  0  0  0  0  0
   -0.2755    0.5975    9.6598 C   0  0  0  0  0  0  0  0  0  0  0  0
   -1.0420    1.8643    9.2976 C   0  0  0  0  0  0  0  0  0  0  0  0
   -0.3198    2.6916    8.2942 C   0  0  0  0  0  0  0  0  0  0  0  0
   -0.8915    3.9274    8.1246 O   0  0  0  0  0  0  0  0  0  0  0  0
   -0.7385    4.8975    7.1989 C   0  0  0  0  0  0  0  0  0  0  0  0
   -0.0615    4.7658    6.0103 C   0  0  0  0  0  0  0  0  0  0  0  0
    0.0130    5.8552    5.1597 C   0  0  0  0  0  0  0  0  0  0  0  0
   -0.5730    7.0539    5.4836 C   0  0  0  0  0  0  0  0  0  0  0  0
   -1.2657    7.2161    6.6841 C   0  0  0  0  0  0  0  0  0  0  0  0
   -1.3389    6.1449    7.5193 C   0  0  0  0  0  0  0  0  0  0  0  0
   -2.1159    6.5732    8.7056 C   0  0  0  0  0  0  0  0  0  0  0  0
   -2.4463    7.9785    8.4143 C   0  0  0  0  0  0  0  0  0  0  0  0
   -1.9558    8.3072    7.2755 N   0  0  0  0  0  0  0  0  0  0  0  0
   -3.2189    8.8304    9.3167 C   0  0  0  0  0  0  0  0  0  0  0  0
   -3.8466    9.4938   10.0260 N   0  0  0  0  0  0  0  0  0  0  0  0
   -1.0797    2.6412   10.4857 O   0  0  0  0  0  0  0  0  0  0  0  0
  1  2  1  0
  2  3  1  0
  2  4  1  0
  2  5  1  0
  5  6  1  0
  6  7  1  0
  7  8  1  0
  8  9  1  0
  9 10  1  0
 10 11  2  0
 11 12  1  0
 12 13  2  0
 13 14  1  0
 14 15  2  0
 15 16  1  0
 16 17  1  0
 17 18  2  0
 17 19  1  0
 19 20  3  0
  7 21  1  0
 15 10  1  0
 18 14  1  0
M  END
$$$$
