
     RDKit          3D

 21 22  0  0  0  0  0  0  0  0999 V2000
    2.5602   -2.0116    8.5958 C   0  0  0  0  0  0  0  0  0  0  0  0
    1.2343   -1.3683    8.8759 C   0  0  0  0  0  0  0  0  0  0  0  0
    0.7448   -1.7991   10.2501 C   0  0  0  0  0  0  0  0  0  0  0  0
    0.2044   -1.7966    7.8524 C   0  0  0  0  0  0  0  0  0  0  0  0
    1.2840    0.0729    8.8749 N   0  0  0  0  0  0  0  0  0  0  0  0
    0.0689    0.6713    9.3819 C   0  0  0  0  0  0  0  0  0  0  0  0
    0.2769    2.1812    9.3580 C   0  0  0  0  0  0  0  0  0  0  0  0
    0.2255    2.7347    7.9784 C   0  0  0  0  0  0  0  0  0  0  0  0
   -0.6201    3.8106    7.8763 O   0  0  0  0  0  0  0  0  0  0  0  0
   -0.7874    4.7693    6.9413 C   0  0  0  0  0  0  0  0  0  0  0  0
   -0.3604    4.6946    5.6373 C   0  0  0  0  0  0  0  0  0  0  0  0
   -0.6035    5.7638    4.7925 C   0  0  0  0  0  0  0  0  0  0  0  0
   -1.2578    6.8870    5.2344 C   0  0  0  0  0  0  0  0  0  0  0  0
   -1.7015    6.9904    6.5534 C   0  0  0  0  0  0  0  0  0  0  0  0
   -1.4626    5.9391    7.3830 C   0  0  0  0  0  0  0  0  0  0  0  0
   -2.0250    6.2954    8.7063 C   0  0  0  0  0  0  0  0  0  0  0  0
   -2.5853    7.6406    8.4936 C   0  0  0  0  0  0  0  0  0  0  0  0
   -2.3875    8.0004    7.2783 N   0  0  0  0  0  0  0  0  0  0  0  0
   -3.2563    8.4107    9.5394 C   0  0  0  0  0  0  0  0  0  0  0  0
   -3.8043    9.0190   10.3561 N   0  0  0  0  0  0  0  0  0  0  0  0
    1.6065    2.3912    9.8107 O   0  0  0  0  0  0  0  0  0  0  0  0
  1  2  1  0
  2  3  1  0
  2  4  1  0
  2  5  1  0
  5  6  1  0
  6  7  1  0
  7  8  1  0
  8  9  1  0
  9 10  1  0
 10 11  2  0
 11 12  1  0
 12 13  2  0
 13 14  1  0
 14 15  2  0
 15 16  1  0
 16 17  1  0
 17 18  2  0
 17 19  1  0
 19 20  3  0
  7 21  1  0
 15 10  1  0
 18 14  1  0
M  END
$$$$
