
     RDKit          3D

 21 22  0  0  0  0  0  0  0  0999 V2000
    1.8903   -1.3538    9.0155 C   0  0  0  0  0  0  0  0  0  0  0  0
    0.4742   -0.9725    8.7003 C   0  0  0  0  0  0  0  0  0  0  0  0
   -0.4481   -1.5229    9.7773 C   0  0  0  0  0  0  0  0  0  0  0  0
    0.0463   -1.5546    7.3700 C   0  0  0  0  0  0  0  0  0  0  0  0
    0.2619    0.4528    8.6466 N   0  0  0  0  0  0  0  0  0  0  0  0
    1.0200    1.1659    9.6510 C   0  0  0  0  0  0  0  0  0  0  0  0
    0.8903    2.6505    9.3308 C   0  0  0  0  0  0  0  0  0  0  0  0
    0.1486    2.8904    8.0639 C   0  0  0  0  0  0  0  0  0  0  0  0
   -0.4324    4.1329    8.0237 O   0  0  0  0  0  0  0  0  0  0  0  0
   -0.6834    5.0040    7.0240 C   0  0  0  0  0  0  0  0  0  0  0  0
   -0.3041    4.8441    5.7129 C   0  0  0  0  0  0  0  0  0  0  0  0
   -0.6329    5.8289    4.7976 C   0  0  0  0  0  0  0  0  0  0  0  0
   -1.3247    6.9525    5.1769 C   0  0  0  0  0  0  0  0  0  0  0  0
   -1.7215    7.1414    6.5013 C   0  0  0  0  0  0  0  0  0  0  0  0
   -1.3985    6.1729    7.4004 C   0  0  0  0  0  0  0  0  0  0  0  0
   -1.9262    6.6085    8.7142 C   0  0  0  0  0  0  0  0  0  0  0  0
   -2.5607    7.9045    8.4202 C   0  0  0  0  0  0  0  0  0  0  0  0
   -2.4284    8.1736    7.1730 N   0  0  0  0  0  0  0  0  0  0  0  0
   -3.2282    8.7246    9.4296 C   0  0  0  0  0  0  0  0  0  0  0  0
   -3.7741    9.3673   10.2209 N   0  0  0  0  0  0  0  0  0  0  0  0
    2.2142    3.1084    9.0976 O   0  0  0  0  0  0  0  0  0  0  0  0
  1  2  1  0
  2  3  1  0
  2  4  1  0
  2  5  1  0
  5  6  1  0
  6  7  1  0
  7  8  1  0
  8  9  1  0
  9 10  1  0
 10 11  2  0
 11 12  1  0
 12 13  2  0
 13 14  1  0
 14 15  2  0
 15 16  1  0
 16 17  1  0
 17 18  2  0
 17 19  1  0
 19 20  3  0
  7 21  1  0
 15 10  1  0
 18 14  1  0
M  END
$$$$
