
     RDKit          3D

 21 22  0  0  0  0  0  0  0  0999 V2000
    0.1957    1.0869   11.8227 C   0  0  0  0  0  0  0  0  0  0  0  0
   -0.4615    0.0560   10.9535 C   0  0  0  0  0  0  0  0  0  0  0  0
   -1.9593    0.0534   11.2184 C   0  0  0  0  0  0  0  0  0  0  0  0
    0.0748   -1.3255   11.2622 C   0  0  0  0  0  0  0  0  0  0  0  0
   -0.2798    0.2945    9.5429 N   0  0  0  0  0  0  0  0  0  0  0  0
   -0.0171    1.6848    9.2435 C   0  0  0  0  0  0  0  0  0  0  0  0
    0.6905    1.7199    7.8938 C   0  0  0  0  0  0  0  0  0  0  0  0
   -0.1065    2.4312    6.8588 C   0  0  0  0  0  0  0  0  0  0  0  0
   -0.2516    3.7674    7.1355 O   0  0  0  0  0  0  0  0  0  0  0  0
   -0.7231    4.8128    6.4240 C   0  0  0  0  0  0  0  0  0  0  0  0
   -0.6543    4.9434    5.0578 C   0  0  0  0  0  0  0  0  0  0  0  0
   -1.1819    6.0790    4.4679 C   0  0  0  0  0  0  0  0  0  0  0  0
   -1.7662    7.0674    5.2206 C   0  0  0  0  0  0  0  0  0  0  0  0
   -1.8489    6.9616    6.6096 C   0  0  0  0  0  0  0  0  0  0  0  0
   -1.3306    5.8450    7.1886 C   0  0  0  0  0  0  0  0  0  0  0  0
   -1.5426    5.9765    8.6488 C   0  0  0  0  0  0  0  0  0  0  0  0
   -2.2249    7.2745    8.7843 C   0  0  0  0  0  0  0  0  0  0  0  0
   -2.3812    7.7999    7.6245 N   0  0  0  0  0  0  0  0  0  0  0  0
   -2.6420    7.8378   10.0671 C   0  0  0  0  0  0  0  0  0  0  0  0
   -2.9540    8.2927   11.0835 N   0  0  0  0  0  0  0  0  0  0  0  0
    0.7638    0.3679    7.4654 O   0  0  0  0  0  0  0  0  0  0  0  0
  1  2  1  0
  2  3  1  0
  2  4  1  0
  2  5  1  0
  5  6  1  0
  6  7  1  0
  7  8  1  0
  8  9  1  0
  9 10  1  0
 10 11  2  0
 11 12  1  0
 12 13  2  0
 13 14  1  0
 14 15  2  0
 15 16  1  0
 16 17  1  0
 17 18  2  0
 17 19  1  0
 19 20  3  0
  7 21  1  0
 15 10  1  0
 18 14  1  0
M  END
$$$$
