
     RDKit          3D

 21 22  0  0  0  0  0  0  0  0999 V2000
   -0.7438   -1.3458   11.0077 C   0  0  0  0  0  0  0  0  0  0  0  0
   -0.2872    0.0747   10.8531 C   0  0  0  0  0  0  0  0  0  0  0  0
    0.9701    0.2934   11.6807 C   0  0  0  0  0  0  0  0  0  0  0  0
   -1.3490    1.0351   11.3450 C   0  0  0  0  0  0  0  0  0  0  0  0
    0.0323    0.4299    9.4925 N   0  0  0  0  0  0  0  0  0  0  0  0
    0.2734    1.8467    9.3299 C   0  0  0  0  0  0  0  0  0  0  0  0
    0.7700    2.0493    7.9030 C   0  0  0  0  0  0  0  0  0  0  0  0
   -0.2412    2.7236    7.0455 C   0  0  0  0  0  0  0  0  0  0  0  0
   -0.4694    4.0220    7.4262 O   0  0  0  0  0  0  0  0  0  0  0  0
   -0.7456    5.1513    6.7409 C   0  0  0  0  0  0  0  0  0  0  0  0
   -0.5208    5.3449    5.3991 C   0  0  0  0  0  0  0  0  0  0  0  0
   -0.8551    6.5638    4.8349 C   0  0  0  0  0  0  0  0  0  0  0  0
   -1.4017    7.5726    5.5890 C   0  0  0  0  0  0  0  0  0  0  0  0
   -1.6398    7.4039    6.9536 C   0  0  0  0  0  0  0  0  0  0  0  0
   -1.3115    6.2056    7.5074 C   0  0  0  0  0  0  0  0  0  0  0  0
   -1.6586    6.2836    8.9454 C   0  0  0  0  0  0  0  0  0  0  0  0
   -2.2035    7.6433    9.0969 C   0  0  0  0  0  0  0  0  0  0  0  0
   -2.1789    8.2439    7.9637 N   0  0  0  0  0  0  0  0  0  0  0  0
   -2.6870    8.1830   10.3666 C   0  0  0  0  0  0  0  0  0  0  0  0
   -3.0519    8.6196   11.3732 N   0  0  0  0  0  0  0  0  0  0  0  0
    0.9273    0.7448    7.3642 O   0  0  0  0  0  0  0  0  0  0  0  0
  1  2  1  0
  2  3  1  0
  2  4  1  0
  2  5  1  0
  5  6  1  0
  6  7  1  0
  7  8  1  0
  8  9  1  0
  9 10  1  0
 10 11  2  0
 11 12  1  0
 12 13  2  0
 13 14  1  0
 14 15  2  0
 15 16  1  0
 16 17  1  0
 17 18  2  0
 17 19  1  0
 19 20  3  0
  7 21  1  0
 15 10  1  0
 18 14  1  0
M  END
$$$$
