
     RDKit          3D

 21 22  0  0  0  0  0  0  0  0999 V2000
   -0.1200   -1.0658   10.7085 C   0  0  0  0  0  0  0  0  0  0  0  0
    0.3060    0.3415   10.4116 C   0  0  0  0  0  0  0  0  0  0  0  0
    1.6630    0.6026   11.0472 C   0  0  0  0  0  0  0  0  0  0  0  0
   -0.6829    1.3330   10.9865 C   0  0  0  0  0  0  0  0  0  0  0  0
    0.4370    0.6163    9.0020 N   0  0  0  0  0  0  0  0  0  0  0  0
    0.4047    2.0316    8.7062 C   0  0  0  0  0  0  0  0  0  0  0  0
    0.5810    2.1719    7.1986 C   0  0  0  0  0  0  0  0  0  0  0  0
   -0.5408    2.9177    6.5678 C   0  0  0  0  0  0  0  0  0  0  0  0
   -0.6287    4.2112    7.0172 O   0  0  0  0  0  0  0  0  0  0  0  0
   -0.7963    5.3968    6.3945 C   0  0  0  0  0  0  0  0  0  0  0  0
   -0.4439    5.6718    5.0951 C   0  0  0  0  0  0  0  0  0  0  0  0
   -0.6767    6.9410    4.5943 C   0  0  0  0  0  0  0  0  0  0  0  0
   -1.2479    7.9197    5.3695 C   0  0  0  0  0  0  0  0  0  0  0  0
   -1.6146    7.6685    6.6922 C   0  0  0  0  0  0  0  0  0  0  0  0
   -1.3861    6.4209    7.1837 C   0  0  0  0  0  0  0  0  0  0  0  0
   -1.8579    6.4155    8.5879 C   0  0  0  0  0  0  0  0  0  0  0  0
   -2.3590    7.7855    8.7900 C   0  0  0  0  0  0  0  0  0  0  0  0
   -2.2083    8.4610    7.7100 N   0  0  0  0  0  0  0  0  0  0  0  0
   -2.9329    8.2582   10.0487 C   0  0  0  0  0  0  0  0  0  0  0  0
   -3.3955    8.6141   11.0470 N   0  0  0  0  0  0  0  0  0  0  0  0
    0.5085    0.8516    6.6808 O   0  0  0  0  0  0  0  0  0  0  0  0
  1  2  1  0
  2  3  1  0
  2  4  1  0
  2  5  1  0
  5  6  1  0
  6  7  1  0
  7  8  1  0
  8  9  1  0
  9 10  1  0
 10 11  2  0
 11 12  1  0
 12 13  2  0
 13 14  1  0
 14 15  2  0
 15 16  1  0
 16 17  1  0
 17 18  2  0
 17 19  1  0
 19 20  3  0
  7 21  1  0
 15 10  1  0
 18 14  1  0
M  END
$$$$
