
     RDKit          3D

 21 22  0  0  0  0  0  0  0  0999 V2000
    2.5801   -0.2395   10.5745 C   0  0  0  0  0  0  0  0  0  0  0  0
    1.7602   -1.0590    9.6225 C   0  0  0  0  0  0  0  0  0  0  0  0
    0.9266   -2.0604   10.4075 C   0  0  0  0  0  0  0  0  0  0  0  0
    2.6527   -1.8294    8.6730 C   0  0  0  0  0  0  0  0  0  0  0  0
    0.8463   -0.2742    8.8297 N   0  0  0  0  0  0  0  0  0  0  0  0
    0.3011    0.8493    9.5593 C   0  0  0  0  0  0  0  0  0  0  0  0
   -0.5666    1.6322    8.5806 C   0  0  0  0  0  0  0  0  0  0  0  0
    0.1354    2.8251    8.0358 C   0  0  0  0  0  0  0  0  0  0  0  0
   -0.6705    3.9350    7.9961 O   0  0  0  0  0  0  0  0  0  0  0  0
   -0.8827    4.8904    7.0669 C   0  0  0  0  0  0  0  0  0  0  0  0
   -0.4617    4.8391    5.7598 C   0  0  0  0  0  0  0  0  0  0  0  0
   -0.7536    5.9014    4.9218 C   0  0  0  0  0  0  0  0  0  0  0  0
   -1.4497    6.9953    5.3734 C   0  0  0  0  0  0  0  0  0  0  0  0
   -1.8883    7.0745    6.6958 C   0  0  0  0  0  0  0  0  0  0  0  0
   -1.6016    6.0299    7.5186 C   0  0  0  0  0  0  0  0  0  0  0  0
   -2.1690    6.3571    8.8473 C   0  0  0  0  0  0  0  0  0  0  0  0
   -2.7846    7.6795    8.6449 C   0  0  0  0  0  0  0  0  0  0  0  0
   -2.6098    8.0526    7.4301 N   0  0  0  0  0  0  0  0  0  0  0  0
   -3.4792    8.4171    9.6988 C   0  0  0  0  0  0  0  0  0  0  0  0
   -4.0438    8.9872   10.5315 N   0  0  0  0  0  0  0  0  0  0  0  0
   -1.6492    2.1368    9.3487 O   0  0  0  0  0  0  0  0  0  0  0  0
  1  2  1  0
  2  3  1  0
  2  4  1  0
  2  5  1  0
  5  6  1  0
  6  7  1  0
  7  8  1  0
  8  9  1  0
  9 10  1  0
 10 11  2  0
 11 12  1  0
 12 13  2  0
 13 14  1  0
 14 15  2  0
 15 16  1  0
 16 17  1  0
 17 18  2  0
 17 19  1  0
 19 20  3  0
  7 21  1  0
 15 10  1  0
 18 14  1  0
M  END
$$$$
