
     RDKit          3D

 21 22  0  0  0  0  0  0  0  0999 V2000
    2.0796    1.2581   10.7978 C   0  0  0  0  0  0  0  0  0  0  0  0
    1.7699    0.0772    9.9262 C   0  0  0  0  0  0  0  0  0  0  0  0
    0.8153   -0.8536   10.6583 C   0  0  0  0  0  0  0  0  0  0  0  0
    3.0307   -0.6969    9.6054 C   0  0  0  0  0  0  0  0  0  0  0  0
    1.1420    0.4341    8.6780 N   0  0  0  0  0  0  0  0  0  0  0  0
    0.0615    1.3799    8.8498 C   0  0  0  0  0  0  0  0  0  0  0  0
   -0.5624    1.5922    7.4753 C   0  0  0  0  0  0  0  0  0  0  0  0
   -0.0145    2.7921    6.7878 C   0  0  0  0  0  0  0  0  0  0  0  0
   -0.7982    3.9037    6.9690 O   0  0  0  0  0  0  0  0  0  0  0  0
   -0.8467    5.1092    6.3641 C   0  0  0  0  0  0  0  0  0  0  0  0
   -0.3210    5.4033    5.1290 C   0  0  0  0  0  0  0  0  0  0  0  0
   -0.4471    6.6916    4.6389 C   0  0  0  0  0  0  0  0  0  0  0  0
   -1.0827    7.6704    5.3621 C   0  0  0  0  0  0  0  0  0  0  0  0
   -1.6248    7.4002    6.6192 C   0  0  0  0  0  0  0  0  0  0  0  0
   -1.5009    6.1337    7.1001 C   0  0  0  0  0  0  0  0  0  0  0  0
   -2.1501    6.1107    8.4314 C   0  0  0  0  0  0  0  0  0  0  0  0
   -2.6298    7.4920    8.6067 C   0  0  0  0  0  0  0  0  0  0  0  0
   -2.3197    8.1879    7.5747 N   0  0  0  0  0  0  0  0  0  0  0  0
   -3.3462    7.9537    9.7944 C   0  0  0  0  0  0  0  0  0  0  0  0
   -3.9282    8.3249   10.7222 N   0  0  0  0  0  0  0  0  0  0  0  0
   -1.9327    1.8759    7.7171 O   0  0  0  0  0  0  0  0  0  0  0  0
  1  2  1  0
  2  3  1  0
  2  4  1  0
  2  5  1  0
  5  6  1  0
  6  7  1  0
  7  8  1  0
  8  9  1  0
  9 10  1  0
 10 11  2  0
 11 12  1  0
 12 13  2  0
 13 14  1  0
 14 15  2  0
 15 16  1  0
 16 17  1  0
 17 18  2  0
 17 19  1  0
 19 20  3  0
  7 21  1  0
 15 10  1  0
 18 14  1  0
M  END
$$$$
