
     RDKit          3D

 21 22  0  0  0  0  0  0  0  0999 V2000
    0.2234   -0.3934   11.5313 C   0  0  0  0  0  0  0  0  0  0  0  0
    1.0678    0.0196   10.3623 C   0  0  0  0  0  0  0  0  0  0  0  0
    1.6292   -1.2199    9.6825 C   0  0  0  0  0  0  0  0  0  0  0  0
    2.2304    0.8758   10.8173 C   0  0  0  0  0  0  0  0  0  0  0  0
    0.3398    0.7603    9.3617 N   0  0  0  0  0  0  0  0  0  0  0  0
    1.1573    1.1013    8.2183 C   0  0  0  0  0  0  0  0  0  0  0  0
    0.2814    1.9212    7.2780 C   0  0  0  0  0  0  0  0  0  0  0  0
    0.0735    3.3095    7.7698 C   0  0  0  0  0  0  0  0  0  0  0  0
   -0.9135    3.9677    7.0802 O   0  0  0  0  0  0  0  0  0  0  0  0
   -0.9771    5.1785    6.4875 C   0  0  0  0  0  0  0  0  0  0  0  0
   -0.4483    5.4937    5.2590 C   0  0  0  0  0  0  0  0  0  0  0  0
   -0.5916    6.7850    4.7815 C   0  0  0  0  0  0  0  0  0  0  0  0
   -1.2470    7.7461    5.5107 C   0  0  0  0  0  0  0  0  0  0  0  0
   -1.7928    7.4542    6.7614 C   0  0  0  0  0  0  0  0  0  0  0  0
   -1.6521    6.1849    7.2298 C   0  0  0  0  0  0  0  0  0  0  0  0
   -2.3093    6.1377    8.5566 C   0  0  0  0  0  0  0  0  0  0  0  0
   -2.8118    7.5094    8.7431 C   0  0  0  0  0  0  0  0  0  0  0  0
   -2.5061    8.2208    7.7204 N   0  0  0  0  0  0  0  0  0  0  0  0
   -3.5429    7.9473    9.9308 C   0  0  0  0  0  0  0  0  0  0  0  0
   -4.1038    8.2951   10.8804 N   0  0  0  0  0  0  0  0  0  0  0  0
   -0.9967    1.3031    7.3099 O   0  0  0  0  0  0  0  0  0  0  0  0
  1  2  1  0
  2  3  1  0
  2  4  1  0
  2  5  1  0
  5  6  1  0
  6  7  1  0
  7  8  1  0
  8  9  1  0
  9 10  1  0
 10 11  2  0
 11 12  1  0
 12 13  2  0
 13 14  1  0
 14 15  2  0
 15 16  1  0
 16 17  1  0
 17 18  2  0
 17 19  1  0
 19 20  3  0
  7 21  1  0
 15 10  1  0
 18 14  1  0
M  END
$$$$
