
     RDKit          3D

 21 22  0  0  0  0  0  0  0  0999 V2000
   -0.0572   -0.6714   10.3217 C   0  0  0  0  0  0  0  0  0  0  0  0
    0.9374    0.4418   10.1740 C   0  0  0  0  0  0  0  0  0  0  0  0
    2.3342   -0.0884   10.4593 C   0  0  0  0  0  0  0  0  0  0  0  0
    0.6452    1.5550   11.1574 C   0  0  0  0  0  0  0  0  0  0  0  0
    0.9629    1.0169    8.8518 N   0  0  0  0  0  0  0  0  0  0  0  0
   -0.2722    1.6897    8.5144 C   0  0  0  0  0  0  0  0  0  0  0  0
   -0.3410    1.7497    6.9928 C   0  0  0  0  0  0  0  0  0  0  0  0
    0.0925    3.0696    6.4614 C   0  0  0  0  0  0  0  0  0  0  0  0
   -0.8518    4.0470    6.6511 O   0  0  0  0  0  0  0  0  0  0  0  0
   -0.9563    5.3253    6.2313 C   0  0  0  0  0  0  0  0  0  0  0  0
   -0.4791    5.8146    5.0392 C   0  0  0  0  0  0  0  0  0  0  0  0
   -0.6601    7.1555    4.7471 C   0  0  0  0  0  0  0  0  0  0  0  0
   -1.3023    7.9955    5.6229 C   0  0  0  0  0  0  0  0  0  0  0  0
   -1.7960    7.5259    6.8407 C   0  0  0  0  0  0  0  0  0  0  0  0
   -1.6182    6.2080    7.1269 C   0  0  0  0  0  0  0  0  0  0  0  0
   -2.2241    5.9683    8.4573 C   0  0  0  0  0  0  0  0  0  0  0  0
   -2.7402    7.2916    8.8462 C   0  0  0  0  0  0  0  0  0  0  0  0
   -2.4843    8.1410    7.9197 N   0  0  0  0  0  0  0  0  0  0  0  0
   -3.4327    7.5498   10.1075 C   0  0  0  0  0  0  0  0  0  0  0  0
   -3.9652    7.7657   11.1111 N   0  0  0  0  0  0  0  0  0  0  0  0
   -1.7185    1.6343    6.6676 O   0  0  0  0  0  0  0  0  0  0  0  0
  1  2  1  0
  2  3  1  0
  2  4  1  0
  2  5  1  0
  5  6  1  0
  6  7  1  0
  7  8  1  0
  8  9  1  0
  9 10  1  0
 10 11  2  0
 11 12  1  0
 12 13  2  0
 13 14  1  0
 14 15  2  0
 15 16  1  0
 16 17  1  0
 17 18  2  0
 17 19  1  0
 19 20  3  0
  7 21  1  0
 15 10  1  0
 18 14  1  0
M  END
$$$$
