
     RDKit          3D

 21 22  0  0  0  0  0  0  0  0999 V2000
   -0.1170   -0.1895   10.4917 C   0  0  0  0  0  0  0  0  0  0  0  0
    1.0872    0.5321    9.9632 C   0  0  0  0  0  0  0  0  0  0  0  0
    2.3269   -0.3184   10.1943 C   0  0  0  0  0  0  0  0  0  0  0  0
    1.2791    1.8509   10.6812 C   0  0  0  0  0  0  0  0  0  0  0  0
    1.0174    0.8061    8.5490 N   0  0  0  0  0  0  0  0  0  0  0  0
   -0.1835    1.5228    8.1804 C   0  0  0  0  0  0  0  0  0  0  0  0
   -0.1622    1.6694    6.6633 C   0  0  0  0  0  0  0  0  0  0  0  0
    0.2170    3.0427    6.2358 C   0  0  0  0  0  0  0  0  0  0  0  0
   -0.8072    3.9423    6.3931 O   0  0  0  0  0  0  0  0  0  0  0  0
   -1.0089    5.2004    5.9482 C   0  0  0  0  0  0  0  0  0  0  0  0
   -0.6428    5.6776    4.7126 C   0  0  0  0  0  0  0  0  0  0  0  0
   -0.9152    6.9979    4.3989 C   0  0  0  0  0  0  0  0  0  0  0  0
   -1.5386    7.8297    5.2958 C   0  0  0  0  0  0  0  0  0  0  0  0
   -1.9203    7.3723    6.5577 C   0  0  0  0  0  0  0  0  0  0  0  0
   -1.6528    6.0744    6.8652 C   0  0  0  0  0  0  0  0  0  0  0  0
   -2.1507    5.8440    8.2412 C   0  0  0  0  0  0  0  0  0  0  0  0
   -2.7084    7.1501    8.6309 C   0  0  0  0  0  0  0  0  0  0  0  0
   -2.5635    7.9833    7.6664 N   0  0  0  0  0  0  0  0  0  0  0  0
   -3.3239    7.4101    9.9311 C   0  0  0  0  0  0  0  0  0  0  0  0
   -3.8251    7.6022   10.9554 N   0  0  0  0  0  0  0  0  0  0  0  0
   -1.5067    1.4900    6.2429 O   0  0  0  0  0  0  0  0  0  0  0  0
  1  2  1  0
  2  3  1  0
  2  4  1  0
  2  5  1  0
  5  6  1  0
  6  7  1  0
  7  8  1  0
  8  9  1  0
  9 10  1  0
 10 11  2  0
 11 12  1  0
 12 13  2  0
 13 14  1  0
 14 15  2  0
 15 16  1  0
 16 17  1  0
 17 18  2  0
 17 19  1  0
 19 20  3  0
  7 21  1  0
 15 10  1  0
 18 14  1  0
M  END
$$$$
