
     RDKit          3D

 21 22  0  0  0  0  0  0  0  0999 V2000
    2.3829   -0.1030   11.1975 C   0  0  0  0  0  0  0  0  0  0  0  0
    1.5152   -0.9524   10.3167 C   0  0  0  0  0  0  0  0  0  0  0  0
    0.8476   -2.0314   11.1556 C   0  0  0  0  0  0  0  0  0  0  0  0
    2.3414   -1.6313    9.2453 C   0  0  0  0  0  0  0  0  0  0  0  0
    0.4648   -0.2130    9.6611 N   0  0  0  0  0  0  0  0  0  0  0  0
    0.9666    0.9125    8.9039 C   0  0  0  0  0  0  0  0  0  0  0  0
   -0.2392    1.5778    8.2504 C   0  0  0  0  0  0  0  0  0  0  0  0
    0.1490    2.7327    7.3971 C   0  0  0  0  0  0  0  0  0  0  0  0
   -0.8019    3.7220    7.3897 O   0  0  0  0  0  0  0  0  0  0  0  0
   -0.9338    4.8720    6.6958 C   0  0  0  0  0  0  0  0  0  0  0  0
   -0.4546    5.0978    5.4279 C   0  0  0  0  0  0  0  0  0  0  0  0
   -0.6662    6.3350    4.8443 C   0  0  0  0  0  0  0  0  0  0  0  0
   -1.3405    7.3302    5.5076 C   0  0  0  0  0  0  0  0  0  0  0  0
   -1.8370    7.1289    6.7961 C   0  0  0  0  0  0  0  0  0  0  0  0
   -1.6291    5.9127    7.3689 C   0  0  0  0  0  0  0  0  0  0  0  0
   -2.2450    5.9574    8.7154 C   0  0  0  0  0  0  0  0  0  0  0  0
   -2.7996    7.3191    8.7976 C   0  0  0  0  0  0  0  0  0  0  0  0
   -2.5541    7.9487    7.7072 N   0  0  0  0  0  0  0  0  0  0  0  0
   -3.5139    7.8313    9.9657 C   0  0  0  0  0  0  0  0  0  0  0  0
   -4.0643    8.2499   10.8925 N   0  0  0  0  0  0  0  0  0  0  0  0
   -1.0003    2.1231    9.3181 O   0  0  0  0  0  0  0  0  0  0  0  0
  1  2  1  0
  2  3  1  0
  2  4  1  0
  2  5  1  0
  5  6  1  0
  6  7  1  0
  7  8  1  0
  8  9  1  0
  9 10  1  0
 10 11  2  0
 11 12  1  0
 12 13  2  0
 13 14  1  0
 14 15  2  0
 15 16  1  0
 16 17  1  0
 17 18  2  0
 17 19  1  0
 19 20  3  0
  7 21  1  0
 15 10  1  0
 18 14  1  0
M  END
$$$$
