
     RDKit          3D

 21 22  0  0  0  0  0  0  0  0999 V2000
    1.8264   -1.3729    9.0212 C   0  0  0  0  0  0  0  0  0  0  0  0
    1.4429   -0.3235   10.0222 C   0  0  0  0  0  0  0  0  0  0  0  0
    2.6944    0.3915   10.5080 C   0  0  0  0  0  0  0  0  0  0  0  0
    0.7621   -0.9498   11.2205 C   0  0  0  0  0  0  0  0  0  0  0  0
    0.5585    0.6828    9.4886 N   0  0  0  0  0  0  0  0  0  0  0  0
    0.6641    0.8103    8.0518 C   0  0  0  0  0  0  0  0  0  0  0  0
   -0.5298    1.6396    7.5931 C   0  0  0  0  0  0  0  0  0  0  0  0
   -0.1202    2.8072    6.7676 C   0  0  0  0  0  0  0  0  0  0  0  0
   -0.8772    3.9224    7.0249 O   0  0  0  0  0  0  0  0  0  0  0  0
   -1.0018    5.1171    6.4096 C   0  0  0  0  0  0  0  0  0  0  0  0
   -0.5122    5.4273    5.1636 C   0  0  0  0  0  0  0  0  0  0  0  0
   -0.7172    6.7016    4.6636 C   0  0  0  0  0  0  0  0  0  0  0  0
   -1.3949    7.6511    5.3877 C   0  0  0  0  0  0  0  0  0  0  0  0
   -1.9018    7.3640    6.6557 C   0  0  0  0  0  0  0  0  0  0  0  0
   -1.7005    6.1113    7.1463 C   0  0  0  0  0  0  0  0  0  0  0  0
   -2.3269    6.0660    8.4879 C   0  0  0  0  0  0  0  0  0  0  0  0
   -2.8798    7.4203    8.6580 C   0  0  0  0  0  0  0  0  0  0  0  0
   -2.6247    8.1217    7.6147 N   0  0  0  0  0  0  0  0  0  0  0  0
   -3.6025    7.8536    9.8525 C   0  0  0  0  0  0  0  0  0  0  0  0
   -4.1569    8.2040   10.8049 N   0  0  0  0  0  0  0  0  0  0  0  0
   -1.0964    2.1815    8.7771 O   0  0  0  0  0  0  0  0  0  0  0  0
  1  2  1  0
  2  3  1  0
  2  4  1  0
  2  5  1  0
  5  6  1  0
  6  7  1  0
  7  8  1  0
  8  9  1  0
  9 10  1  0
 10 11  2  0
 11 12  1  0
 12 13  2  0
 13 14  1  0
 14 15  2  0
 15 16  1  0
 16 17  1  0
 17 18  2  0
 17 19  1  0
 19 20  3  0
  7 21  1  0
 15 10  1  0
 18 14  1  0
M  END
$$$$
