
     RDKit          3D

 21 22  0  0  0  0  0  0  0  0999 V2000
    1.9001   -1.4832   10.5895 C   0  0  0  0  0  0  0  0  0  0  0  0
    1.1127   -0.2106   10.4857 C   0  0  0  0  0  0  0  0  0  0  0  0
    1.9810    0.9574   10.9279 C   0  0  0  0  0  0  0  0  0  0  0  0
   -0.1052   -0.2597   11.3834 C   0  0  0  0  0  0  0  0  0  0  0  0
    0.6620    0.0779    9.1466 N   0  0  0  0  0  0  0  0  0  0  0  0
    0.3389    1.4749    8.9577 C   0  0  0  0  0  0  0  0  0  0  0  0
   -0.1119    1.6322    7.5101 C   0  0  0  0  0  0  0  0  0  0  0  0
    0.2716    2.9520    6.9414 C   0  0  0  0  0  0  0  0  0  0  0  0
   -0.7618    3.8544    6.9678 O   0  0  0  0  0  0  0  0  0  0  0  0
   -0.9310    5.0819    6.4328 C   0  0  0  0  0  0  0  0  0  0  0  0
   -0.4873    5.4802    5.1948 C   0  0  0  0  0  0  0  0  0  0  0  0
   -0.7349    6.7780    4.7822 C   0  0  0  0  0  0  0  0  0  0  0  0
   -1.4099    7.6646    5.5844 C   0  0  0  0  0  0  0  0  0  0  0  0
   -1.8708    7.2875    6.8464 C   0  0  0  0  0  0  0  0  0  0  0  0
   -1.6275    6.0118    7.2511 C   0  0  0  0  0  0  0  0  0  0  0  0
   -2.2106    5.8685    8.6052 C   0  0  0  0  0  0  0  0  0  0  0  0
   -2.7868    7.1964    8.8765 C   0  0  0  0  0  0  0  0  0  0  0  0
   -2.5794    7.9671    7.8722 N   0  0  0  0  0  0  0  0  0  0  0  0
   -3.4809    7.5378   10.1169 C   0  0  0  0  0  0  0  0  0  0  0  0
   -4.0346    7.7883   11.1008 N   0  0  0  0  0  0  0  0  0  0  0  0
   -1.5314    1.6243    7.5487 O   0  0  0  0  0  0  0  0  0  0  0  0
  1  2  1  0
  2  3  1  0
  2  4  1  0
  2  5  1  0
  5  6  1  0
  6  7  1  0
  7  8  1  0
  8  9  1  0
  9 10  1  0
 10 11  2  0
 11 12  1  0
 12 13  2  0
 13 14  1  0
 14 15  2  0
 15 16  1  0
 16 17  1  0
 17 18  2  0
 17 19  1  0
 19 20  3  0
  7 21  1  0
 15 10  1  0
 18 14  1  0
M  END
$$$$
