
     RDKit          3D

 21 22  0  0  0  0  0  0  0  0999 V2000
    1.2866   -0.8449   11.0586 C   0  0  0  0  0  0  0  0  0  0  0  0
    1.7492    0.1793   10.0650 C   0  0  0  0  0  0  0  0  0  0  0  0
    3.0379   -0.2970    9.4122 C   0  0  0  0  0  0  0  0  0  0  0  0
    2.0270    1.5012   10.7484 C   0  0  0  0  0  0  0  0  0  0  0  0
    0.8005    0.4212    9.0061 N   0  0  0  0  0  0  0  0  0  0  0  0
    1.1771    1.5370    8.1666 C   0  0  0  0  0  0  0  0  0  0  0  0
    0.0391    1.7470    7.1744 C   0  0  0  0  0  0  0  0  0  0  0  0
   -1.0992    2.4940    7.7733 C   0  0  0  0  0  0  0  0  0  0  0  0
   -0.9989    3.8483    7.5767 O   0  0  0  0  0  0  0  0  0  0  0  0
   -1.6474    4.9091    8.1017 C   0  0  0  0  0  0  0  0  0  0  0  0
   -2.5420    4.8610    9.1436 C   0  0  0  0  0  0  0  0  0  0  0  0
   -3.1317    6.0376    9.5725 C   0  0  0  0  0  0  0  0  0  0  0  0
   -2.8394    7.2398    8.9773 C   0  0  0  0  0  0  0  0  0  0  0  0
   -1.9357    7.3178    7.9168 C   0  0  0  0  0  0  0  0  0  0  0  0
   -1.3561    6.1613    7.4961 C   0  0  0  0  0  0  0  0  0  0  0  0
   -0.4520    6.5124    6.3765 C   0  0  0  0  0  0  0  0  0  0  0  0
   -0.6113    7.9707    6.2470 C   0  0  0  0  0  0  0  0  0  0  0  0
   -1.4485    8.3902    7.1237 N   0  0  0  0  0  0  0  0  0  0  0  0
    0.0983    8.7758    5.2544 C   0  0  0  0  0  0  0  0  0  0  0  0
    0.6472    9.4057    4.4549 N   0  0  0  0  0  0  0  0  0  0  0  0
   -0.4589    0.4492    6.8837 O   0  0  0  0  0  0  0  0  0  0  0  0
  1  2  1  0
  2  3  1  0
  2  4  1  0
  2  5  1  0
  5  6  1  0
  6  7  1  0
  7  8  1  0
  8  9  1  0
  9 10  1  0
 10 11  2  0
 11 12  1  0
 12 13  2  0
 13 14  1  0
 14 15  2  0
 15 16  1  0
 16 17  1  0
 17 18  2  0
 17 19  1  0
 19 20  3  0
  7 21  1  0
 15 10  1  0
 18 14  1  0
M  END
$$$$
