
     RDKit          3D

 21 22  0  0  0  0  0  0  0  0999 V2000
   -0.0050   -1.4959   10.5460 C   0  0  0  0  0  0  0  0  0  0  0  0
    0.5352   -0.1087   10.3616 C   0  0  0  0  0  0  0  0  0  0  0  0
    1.9754   -0.0592   10.8485 C   0  0  0  0  0  0  0  0  0  0  0  0
   -0.2693    0.8906   11.1654 C   0  0  0  0  0  0  0  0  0  0  0  0
    0.5357    0.3290    8.9875 N   0  0  0  0  0  0  0  0  0  0  0  0
    0.6341    1.7665    8.8621 C   0  0  0  0  0  0  0  0  0  0  0  0
    0.6412    2.0803    7.3705 C   0  0  0  0  0  0  0  0  0  0  0  0
   -0.6607    2.6285    6.9044 C   0  0  0  0  0  0  0  0  0  0  0  0
   -0.8302    3.9447    7.2532 O   0  0  0  0  0  0  0  0  0  0  0  0
   -0.9564    5.0818    6.5373 C   0  0  0  0  0  0  0  0  0  0  0  0
   -0.5782    5.2448    5.2263 C   0  0  0  0  0  0  0  0  0  0  0  0
   -0.7690    6.4765    4.6242 C   0  0  0  0  0  0  0  0  0  0  0  0
   -1.3241    7.5275    5.3113 C   0  0  0  0  0  0  0  0  0  0  0  0
   -1.7163    7.3906    6.6435 C   0  0  0  0  0  0  0  0  0  0  0  0
   -1.5290    6.1797    7.2345 C   0  0  0  0  0  0  0  0  0  0  0  0
   -2.0207    6.2969    8.6269 C   0  0  0  0  0  0  0  0  0  0  0  0
   -2.4869    7.6911    8.7134 C   0  0  0  0  0  0  0  0  0  0  0  0
   -2.3024    8.2757    7.5866 N   0  0  0  0  0  0  0  0  0  0  0  0
   -3.0654    8.2759    9.9219 C   0  0  0  0  0  0  0  0  0  0  0  0
   -3.5357    8.7491   10.8664 N   0  0  0  0  0  0  0  0  0  0  0  0
    0.7907    0.8282    6.7172 O   0  0  0  0  0  0  0  0  0  0  0  0
  1  2  1  0
  2  3  1  0
  2  4  1  0
  2  5  1  0
  5  6  1  0
  6  7  1  0
  7  8  1  0
  8  9  1  0
  9 10  1  0
 10 11  2  0
 11 12  1  0
 12 13  2  0
 13 14  1  0
 14 15  2  0
 15 16  1  0
 16 17  1  0
 17 18  2  0
 17 19  1  0
 19 20  3  0
  7 21  1  0
 15 10  1  0
 18 14  1  0
M  END
$$$$
