
     RDKit          3D

 21 22  0  0  0  0  0  0  0  0999 V2000
    0.3020   -2.1855    8.8487 C   0  0  0  0  0  0  0  0  0  0  0  0
    0.1862   -1.5004   10.1782 C   0  0  0  0  0  0  0  0  0  0  0  0
    1.4488   -1.7533   10.9878 C   0  0  0  0  0  0  0  0  0  0  0  0
   -0.9918   -2.0427   10.9592 C   0  0  0  0  0  0  0  0  0  0  0  0
    0.0264   -0.0709   10.0752 N   0  0  0  0  0  0  0  0  0  0  0  0
    0.9562    0.5265    9.1423 C   0  0  0  0  0  0  0  0  0  0  0  0
    0.6820    2.0260    9.1445 C   0  0  0  0  0  0  0  0  0  0  0  0
    0.0560    2.4856    7.8759 C   0  0  0  0  0  0  0  0  0  0  0  0
   -0.4262    3.7672    7.9635 O   0  0  0  0  0  0  0  0  0  0  0  0
   -0.6409    4.7384    7.0513 C   0  0  0  0  0  0  0  0  0  0  0  0
   -0.2659    4.6887    5.7303 C   0  0  0  0  0  0  0  0  0  0  0  0
   -0.5539    5.7680    4.9130 C   0  0  0  0  0  0  0  0  0  0  0  0
   -1.2015    6.8771    5.3985 C   0  0  0  0  0  0  0  0  0  0  0  0
   -1.5928    6.9551    6.7357 C   0  0  0  0  0  0  0  0  0  0  0  0
   -1.3099    5.8937    7.5382 C   0  0  0  0  0  0  0  0  0  0  0  0
   -1.8223    6.2233    8.8885 C   0  0  0  0  0  0  0  0  0  0  0  0
   -2.4046    7.5654    8.7199 C   0  0  0  0  0  0  0  0  0  0  0  0
   -2.2596    7.9461    7.5035 N   0  0  0  0  0  0  0  0  0  0  0  0
   -3.0411    8.3118    9.8038 C   0  0  0  0  0  0  0  0  0  0  0  0
   -3.5470    8.8850   10.6714 N   0  0  0  0  0  0  0  0  0  0  0  0
    1.9577    2.6478    9.1949 O   0  0  0  0  0  0  0  0  0  0  0  0
  1  2  1  0
  2  3  1  0
  2  4  1  0
  2  5  1  0
  5  6  1  0
  6  7  1  0
  7  8  1  0
  8  9  1  0
  9 10  1  0
 10 11  2  0
 11 12  1  0
 12 13  2  0
 13 14  1  0
 14 15  2  0
 15 16  1  0
 16 17  1  0
 17 18  2  0
 17 19  1  0
 19 20  3  0
  7 21  1  0
 15 10  1  0
 18 14  1  0
M  END
$$$$
