
     RDKit          3D

 21 22  0  0  0  0  0  0  0  0999 V2000
    0.9559   -2.2500    9.4980 C   0  0  0  0  0  0  0  0  0  0  0  0
    1.1346   -1.4049    8.2717 C   0  0  0  0  0  0  0  0  0  0  0  0
    0.7046   -2.1967    7.0462 C   0  0  0  0  0  0  0  0  0  0  0  0
    2.5870   -1.0157    8.0963 C   0  0  0  0  0  0  0  0  0  0  0  0
    0.3527   -0.1933    8.2908 N   0  0  0  0  0  0  0  0  0  0  0  0
    0.9493    0.8405    9.1076 C   0  0  0  0  0  0  0  0  0  0  0  0
   -0.0041    2.0295    9.0811 C   0  0  0  0  0  0  0  0  0  0  0  0
    0.0935    2.8012    7.8133 C   0  0  0  0  0  0  0  0  0  0  0  0
   -0.5307    4.0206    7.8923 O   0  0  0  0  0  0  0  0  0  0  0  0
   -0.7048    5.0287    7.0121 C   0  0  0  0  0  0  0  0  0  0  0  0
   -0.2613    5.0372    5.7116 C   0  0  0  0  0  0  0  0  0  0  0  0
   -0.5142    6.1490    4.9268 C   0  0  0  0  0  0  0  0  0  0  0  0
   -1.1941    7.2331    5.4244 C   0  0  0  0  0  0  0  0  0  0  0  0
   -1.6549    7.2521    6.7414 C   0  0  0  0  0  0  0  0  0  0  0  0
   -1.4064    6.1589    7.5120 C   0  0  0  0  0  0  0  0  0  0  0  0
   -1.9906    6.4280    8.8464 C   0  0  0  0  0  0  0  0  0  0  0  0
   -2.5730    7.7732    8.7046 C   0  0  0  0  0  0  0  0  0  0  0  0
   -2.3678    8.2061    7.5147 N   0  0  0  0  0  0  0  0  0  0  0  0
   -3.2701    8.4695    9.7845 C   0  0  0  0  0  0  0  0  0  0  0  0
   -3.8393    9.0143   10.6309 N   0  0  0  0  0  0  0  0  0  0  0  0
    0.4482    2.9051   10.1036 O   0  0  0  0  0  0  0  0  0  0  0  0
  1  2  1  0
  2  3  1  0
  2  4  1  0
  2  5  1  0
  5  6  1  0
  6  7  1  0
  7  8  1  0
  8  9  1  0
  9 10  1  0
 10 11  2  0
 11 12  1  0
 12 13  2  0
 13 14  1  0
 14 15  2  0
 15 16  1  0
 16 17  1  0
 17 18  2  0
 17 19  1  0
 19 20  3  0
  7 21  1  0
 15 10  1  0
 18 14  1  0
M  END
$$$$
