
     RDKit          3D

 21 22  0  0  0  0  0  0  0  0999 V2000
   -0.9056    0.9081   11.1953 C   0  0  0  0  0  0  0  0  0  0  0  0
    0.1485    0.1592   10.4350 C   0  0  0  0  0  0  0  0  0  0  0  0
   -0.0295   -1.3340   10.6635 C   0  0  0  0  0  0  0  0  0  0  0  0
    1.5314    0.5481   10.9125 C   0  0  0  0  0  0  0  0  0  0  0  0
    0.0953    0.3806    9.0109 N   0  0  0  0  0  0  0  0  0  0  0  0
    0.7856    1.5866    8.6098 C   0  0  0  0  0  0  0  0  0  0  0  0
    0.6915    1.6647    7.0903 C   0  0  0  0  0  0  0  0  0  0  0  0
   -0.5296    2.3837    6.6383 C   0  0  0  0  0  0  0  0  0  0  0  0
   -0.5673    3.6822    7.0804 O   0  0  0  0  0  0  0  0  0  0  0  0
   -0.8619    4.8547    6.4806 C   0  0  0  0  0  0  0  0  0  0  0  0
   -0.6385    5.1519    5.1577 C   0  0  0  0  0  0  0  0  0  0  0  0
   -0.9929    6.4038    4.6853 C   0  0  0  0  0  0  0  0  0  0  0  0
   -1.5579    7.3438    5.5112 C   0  0  0  0  0  0  0  0  0  0  0  0
   -1.7951    7.0695    6.8587 C   0  0  0  0  0  0  0  0  0  0  0  0
   -1.4470    5.8389    7.3223 C   0  0  0  0  0  0  0  0  0  0  0  0
   -1.7976    5.8032    8.7611 C   0  0  0  0  0  0  0  0  0  0  0  0
   -2.3660    7.1384    9.0123 C   0  0  0  0  0  0  0  0  0  0  0  0
   -2.3501    7.8223    7.9272 N   0  0  0  0  0  0  0  0  0  0  0  0
   -2.8606    7.5732   10.3174 C   0  0  0  0  0  0  0  0  0  0  0  0
   -3.2350    7.9279   11.3524 N   0  0  0  0  0  0  0  0  0  0  0  0
    0.5383    0.3241    6.6474 O   0  0  0  0  0  0  0  0  0  0  0  0
  1  2  1  0
  2  3  1  0
  2  4  1  0
  2  5  1  0
  5  6  1  0
  6  7  1  0
  7  8  1  0
  8  9  1  0
  9 10  1  0
 10 11  2  0
 11 12  1  0
 12 13  2  0
 13 14  1  0
 14 15  2  0
 15 16  1  0
 16 17  1  0
 17 18  2  0
 17 19  1  0
 19 20  3  0
  7 21  1  0
 15 10  1  0
 18 14  1  0
M  END
$$$$
