
     RDKit          3D

 21 22  0  0  0  0  0  0  0  0999 V2000
   -1.1896    0.6810   11.0232 C   0  0  0  0  0  0  0  0  0  0  0  0
    0.0248    0.0547   10.4042 C   0  0  0  0  0  0  0  0  0  0  0  0
   -0.0347   -1.4537   10.5910 C   0  0  0  0  0  0  0  0  0  0  0  0
    1.2868    0.5630   11.0679 C   0  0  0  0  0  0  0  0  0  0  0  0
    0.1403    0.3035    8.9884 N   0  0  0  0  0  0  0  0  0  0  0  0
    0.0564    1.7101    8.6625 C   0  0  0  0  0  0  0  0  0  0  0  0
    0.3077    1.8320    7.1640 C   0  0  0  0  0  0  0  0  0  0  0  0
   -0.7426    2.6335    6.4805 C   0  0  0  0  0  0  0  0  0  0  0  0
   -0.7166    3.9549    6.8494 O   0  0  0  0  0  0  0  0  0  0  0  0
   -1.0452    5.0988    6.2131 C   0  0  0  0  0  0  0  0  0  0  0  0
   -0.8255    5.3626    4.8825 C   0  0  0  0  0  0  0  0  0  0  0  0
   -1.2169    6.5877    4.3708 C   0  0  0  0  0  0  0  0  0  0  0  0
   -1.8147    7.5342    5.1658 C   0  0  0  0  0  0  0  0  0  0  0  0
   -2.0490    7.2937    6.5202 C   0  0  0  0  0  0  0  0  0  0  0  0
   -1.6645    6.0893    7.0223 C   0  0  0  0  0  0  0  0  0  0  0  0
   -2.0200    6.0864    8.4604 C   0  0  0  0  0  0  0  0  0  0  0  0
   -2.6310    7.4100    8.6688 C   0  0  0  0  0  0  0  0  0  0  0  0
   -2.6319    8.0608    7.5634 N   0  0  0  0  0  0  0  0  0  0  0  0
   -3.1447    7.8686    9.9583 C   0  0  0  0  0  0  0  0  0  0  0  0
   -3.5565    8.2487   10.9698 N   0  0  0  0  0  0  0  0  0  0  0  0
    0.1873    0.5145    6.6478 O   0  0  0  0  0  0  0  0  0  0  0  0
  1  2  1  0
  2  3  1  0
  2  4  1  0
  2  5  1  0
  5  6  1  0
  6  7  1  0
  7  8  1  0
  8  9  1  0
  9 10  1  0
 10 11  2  0
 11 12  1  0
 12 13  2  0
 13 14  1  0
 14 15  2  0
 15 16  1  0
 16 17  1  0
 17 18  2  0
 17 19  1  0
 19 20  3  0
  7 21  1  0
 15 10  1  0
 18 14  1  0
M  END
$$$$
