
     RDKit          3D

 21 22  0  0  0  0  0  0  0  0999 V2000
   -2.2033    1.5760   10.3878 C   0  0  0  0  0  0  0  0  0  0  0  0
   -0.7086    1.4690   10.4549 C   0  0  0  0  0  0  0  0  0  0  0  0
   -0.3153    0.0129   10.6519 C   0  0  0  0  0  0  0  0  0  0  0  0
   -0.1664    2.2663   11.6220 C   0  0  0  0  0  0  0  0  0  0  0  0
   -0.0459    1.9304    9.2600 N   0  0  0  0  0  0  0  0  0  0  0  0
   -0.3443    1.1098    8.1070 C   0  0  0  0  0  0  0  0  0  0  0  0
    0.4289    1.6998    6.9332 C   0  0  0  0  0  0  0  0  0  0  0  0
   -0.4140    2.5965    6.0978 C   0  0  0  0  0  0  0  0  0  0  0  0
   -0.5734    3.8387    6.6586 O   0  0  0  0  0  0  0  0  0  0  0  0
   -0.8795    5.0504    6.1492 C   0  0  0  0  0  0  0  0  0  0  0  0
   -0.6566    5.4502    4.8536 C   0  0  0  0  0  0  0  0  0  0  0  0
   -1.0236    6.7307    4.4771 C   0  0  0  0  0  0  0  0  0  0  0  0
   -1.6004    7.5988    5.3708 C   0  0  0  0  0  0  0  0  0  0  0  0
   -1.8373    7.2198    6.6928 C   0  0  0  0  0  0  0  0  0  0  0  0
   -1.4769    5.9611    7.0620 C   0  0  0  0  0  0  0  0  0  0  0  0
   -1.8299    5.8119    8.4929 C   0  0  0  0  0  0  0  0  0  0  0  0
   -2.4133    7.1178    8.8437 C   0  0  0  0  0  0  0  0  0  0  0  0
   -2.4026    7.8828    7.8141 N   0  0  0  0  0  0  0  0  0  0  0  0
   -2.9152    7.4463   10.1768 C   0  0  0  0  0  0  0  0  0  0  0  0
   -3.3172    7.6869   11.2341 N   0  0  0  0  0  0  0  0  0  0  0  0
    0.7632    0.5973    6.1028 O   0  0  0  0  0  0  0  0  0  0  0  0
  1  2  1  0
  2  3  1  0
  2  4  1  0
  2  5  1  0
  5  6  1  0
  6  7  1  0
  7  8  1  0
  8  9  1  0
  9 10  1  0
 10 11  2  0
 11 12  1  0
 12 13  2  0
 13 14  1  0
 14 15  2  0
 15 16  1  0
 16 17  1  0
 17 18  2  0
 17 19  1  0
 19 20  3  0
  7 21  1  0
 15 10  1  0
 18 14  1  0
M  END
$$$$
