
     RDKit          3D

 21 22  0  0  0  0  0  0  0  0999 V2000
    0.0790   -0.4275   10.3849 C   0  0  0  0  0  0  0  0  0  0  0  0
   -0.4164    0.9794   10.2255 C   0  0  0  0  0  0  0  0  0  0  0  0
    0.6333    1.9465   10.7512 C   0  0  0  0  0  0  0  0  0  0  0  0
   -1.6906    1.1912   11.0149 C   0  0  0  0  0  0  0  0  0  0  0  0
   -0.6810    1.3429    8.8553 N   0  0  0  0  0  0  0  0  0  0  0  0
    0.4919    1.2371    8.0157 C   0  0  0  0  0  0  0  0  0  0  0  0
    0.0612    1.6215    6.6049 C   0  0  0  0  0  0  0  0  0  0  0  0
    0.4557    3.0125    6.2554 C   0  0  0  0  0  0  0  0  0  0  0  0
   -0.5094    3.9300    6.5865 O   0  0  0  0  0  0  0  0  0  0  0  0
   -0.7606    5.1934    6.1840 C   0  0  0  0  0  0  0  0  0  0  0  0
   -0.4439    5.7160    4.9532 C   0  0  0  0  0  0  0  0  0  0  0  0
   -0.7639    7.0359    4.6856 C   0  0  0  0  0  0  0  0  0  0  0  0
   -1.3859    7.8228    5.6230 C   0  0  0  0  0  0  0  0  0  0  0  0
   -1.7181    7.3186    6.8810 C   0  0  0  0  0  0  0  0  0  0  0  0
   -1.4039    6.0213    7.1433 C   0  0  0  0  0  0  0  0  0  0  0  0
   -1.8556    5.7373    8.5252 C   0  0  0  0  0  0  0  0  0  0  0  0
   -2.4403    7.0144    8.9678 C   0  0  0  0  0  0  0  0  0  0  0  0
   -2.3474    7.8785    8.0242 N   0  0  0  0  0  0  0  0  0  0  0  0
   -3.0262    7.2189   10.2914 C   0  0  0  0  0  0  0  0  0  0  0  0
   -3.5060    7.3887   11.3297 N   0  0  0  0  0  0  0  0  0  0  0  0
   -1.3587    1.6142    6.6234 O   0  0  0  0  0  0  0  0  0  0  0  0
  1  2  1  0
  2  3  1  0
  2  4  1  0
  2  5  1  0
  5  6  1  0
  6  7  1  0
  7  8  1  0
  8  9  1  0
  9 10  1  0
 10 11  2  0
 11 12  1  0
 12 13  2  0
 13 14  1  0
 14 15  2  0
 15 16  1  0
 16 17  1  0
 17 18  2  0
 17 19  1  0
 19 20  3  0
  7 21  1  0
 15 10  1  0
 18 14  1  0
M  END
$$$$
