
     RDKit          3D

 21 22  0  0  0  0  0  0  0  0999 V2000
    2.9762   -0.1537    9.7969 C   0  0  0  0  0  0  0  0  0  0  0  0
    1.5173   -0.3846   10.0588 C   0  0  0  0  0  0  0  0  0  0  0  0
    1.0709    0.4825   11.2261 C   0  0  0  0  0  0  0  0  0  0  0  0
    1.2608   -1.8320   10.4210 C   0  0  0  0  0  0  0  0  0  0  0  0
    0.6735   -0.0546    8.9370 N   0  0  0  0  0  0  0  0  0  0  0  0
    0.6598    1.3628    8.6497 C   0  0  0  0  0  0  0  0  0  0  0  0
   -0.2436    1.5591    7.4378 C   0  0  0  0  0  0  0  0  0  0  0  0
    0.1196    2.7709    6.6554 C   0  0  0  0  0  0  0  0  0  0  0  0
   -0.7083    3.8329    6.9192 O   0  0  0  0  0  0  0  0  0  0  0  0
   -0.9140    5.0186    6.3083 C   0  0  0  0  0  0  0  0  0  0  0  0
   -0.5121    5.3394    5.0340 C   0  0  0  0  0  0  0  0  0  0  0  0
   -0.7939    6.6024    4.5427 C   0  0  0  0  0  0  0  0  0  0  0  0
   -1.4617    7.5304    5.3030 C   0  0  0  0  0  0  0  0  0  0  0  0
   -1.8805    7.2322    6.6002 C   0  0  0  0  0  0  0  0  0  0  0  0
   -1.6036    5.9906    7.0823 C   0  0  0  0  0  0  0  0  0  0  0  0
   -2.1461    5.9299    8.4593 C   0  0  0  0  0  0  0  0  0  0  0  0
   -2.7377    7.2639    8.6576 C   0  0  0  0  0  0  0  0  0  0  0  0
   -2.5720    7.9682    7.5984 N   0  0  0  0  0  0  0  0  0  0  0  0
   -3.4028    7.6772    9.8920 C   0  0  0  0  0  0  0  0  0  0  0  0
   -3.9298    7.9849   10.8743 N   0  0  0  0  0  0  0  0  0  0  0  0
   -1.5388    1.8107    7.9632 O   0  0  0  0  0  0  0  0  0  0  0  0
  1  2  1  0
  2  3  1  0
  2  4  1  0
  2  5  1  0
  5  6  1  0
  6  7  1  0
  7  8  1  0
  8  9  1  0
  9 10  1  0
 10 11  2  0
 11 12  1  0
 12 13  2  0
 13 14  1  0
 14 15  2  0
 15 16  1  0
 16 17  1  0
 17 18  2  0
 17 19  1  0
 19 20  3  0
  7 21  1  0
 15 10  1  0
 18 14  1  0
M  END
$$$$
