
     RDKit          3D

 21 22  0  0  0  0  0  0  0  0999 V2000
   -0.6117    2.4736   10.5761 C   0  0  0  0  0  0  0  0  0  0  0  0
    0.4462    1.4942   10.1618 C   0  0  0  0  0  0  0  0  0  0  0  0
   -0.1125    0.0820   10.2466 C   0  0  0  0  0  0  0  0  0  0  0  0
    1.6469    1.5826   11.0796 C   0  0  0  0  0  0  0  0  0  0  0  0
    0.9095    1.6875    8.8099 N   0  0  0  0  0  0  0  0  0  0  0  0
   -0.1581    1.5980    7.8383 C   0  0  0  0  0  0  0  0  0  0  0  0
    0.4907    1.6725    6.4610 C   0  0  0  0  0  0  0  0  0  0  0  0
   -0.0879    2.7575    5.6241 C   0  0  0  0  0  0  0  0  0  0  0  0
   -0.5349    3.8162    6.3741 O   0  0  0  0  0  0  0  0  0  0  0  0
   -0.8222    5.1016    6.0797 C   0  0  0  0  0  0  0  0  0  0  0  0
   -0.6091    5.7083    4.8653 C   0  0  0  0  0  0  0  0  0  0  0  0
   -0.9539    7.0403    4.7144 C   0  0  0  0  0  0  0  0  0  0  0  0
   -1.4994    7.7572    5.7504 C   0  0  0  0  0  0  0  0  0  0  0  0
   -1.7257    7.1670    6.9945 C   0  0  0  0  0  0  0  0  0  0  0  0
   -1.3871    5.8577    7.1420 C   0  0  0  0  0  0  0  0  0  0  0  0
   -1.7231    5.4778    8.5337 C   0  0  0  0  0  0  0  0  0  0  0  0
   -2.2734    6.7173    9.1079 C   0  0  0  0  0  0  0  0  0  0  0  0
   -2.2609    7.6434    8.2204 N   0  0  0  0  0  0  0  0  0  0  0  0
   -2.7494    6.8275   10.4857 C   0  0  0  0  0  0  0  0  0  0  0  0
   -3.1263    6.9348   11.5736 N   0  0  0  0  0  0  0  0  0  0  0  0
    0.1485    0.4572    5.8109 O   0  0  0  0  0  0  0  0  0  0  0  0
  1  2  1  0
  2  3  1  0
  2  4  1  0
  2  5  1  0
  5  6  1  0
  6  7  1  0
  7  8  1  0
  8  9  1  0
  9 10  1  0
 10 11  2  0
 11 12  1  0
 12 13  2  0
 13 14  1  0
 14 15  2  0
 15 16  1  0
 16 17  1  0
 17 18  2  0
 17 19  1  0
 19 20  3  0
  7 21  1  0
 15 10  1  0
 18 14  1  0
M  END
$$$$
