
     RDKit          3D

 21 22  0  0  0  0  0  0  0  0999 V2000
    1.9114   -0.2555   10.8972 C   0  0  0  0  0  0  0  0  0  0  0  0
    0.9550    0.7504   10.3285 C   0  0  0  0  0  0  0  0  0  0  0  0
    1.5123    2.1503   10.5366 C   0  0  0  0  0  0  0  0  0  0  0  0
   -0.3863    0.6680   11.0256 C   0  0  0  0  0  0  0  0  0  0  0  0
    0.7271    0.5897    8.9136 N   0  0  0  0  0  0  0  0  0  0  0  0
   -0.1168    1.6283    8.3650 C   0  0  0  0  0  0  0  0  0  0  0  0
    0.0501    1.5790    6.8507 C   0  0  0  0  0  0  0  0  0  0  0  0
    0.3446    2.9176    6.2730 C   0  0  0  0  0  0  0  0  0  0  0  0
   -0.6712    3.8153    6.4855 O   0  0  0  0  0  0  0  0  0  0  0  0
   -0.8673    5.0959    6.1071 C   0  0  0  0  0  0  0  0  0  0  0  0
   -0.4533    5.6487    4.9192 C   0  0  0  0  0  0  0  0  0  0  0  0
   -0.7264    6.9830    4.6723 C   0  0  0  0  0  0  0  0  0  0  0  0
   -1.3973    7.7548    5.5884 C   0  0  0  0  0  0  0  0  0  0  0  0
   -1.8283    7.2199    6.8031 C   0  0  0  0  0  0  0  0  0  0  0  0
   -1.5601    5.9084    7.0449 C   0  0  0  0  0  0  0  0  0  0  0  0
   -2.1146    5.5924    8.3817 C   0  0  0  0  0  0  0  0  0  0  0  0
   -2.7030    6.8683    8.8229 C   0  0  0  0  0  0  0  0  0  0  0  0
   -2.5257    7.7585    7.9165 N   0  0  0  0  0  0  0  0  0  0  0  0
   -3.3772    7.0453   10.1079 C   0  0  0  0  0  0  0  0  0  0  0  0
   -3.9007    7.2028   11.1269 N   0  0  0  0  0  0  0  0  0  0  0  0
   -1.2208    1.2065    6.3379 O   0  0  0  0  0  0  0  0  0  0  0  0
  1  2  1  0
  2  3  1  0
  2  4  1  0
  2  5  1  0
  5  6  1  0
  6  7  1  0
  7  8  1  0
  8  9  1  0
  9 10  1  0
 10 11  2  0
 11 12  1  0
 12 13  2  0
 13 14  1  0
 14 15  2  0
 15 16  1  0
 16 17  1  0
 17 18  2  0
 17 19  1  0
 19 20  3  0
  7 21  1  0
 15 10  1  0
 18 14  1  0
M  END
$$$$
