
     RDKit          3D

 21 22  0  0  0  0  0  0  0  0999 V2000
    0.3925    0.1972   11.2791 C   0  0  0  0  0  0  0  0  0  0  0  0
    1.4428    0.0937   10.2131 C   0  0  0  0  0  0  0  0  0  0  0  0
    1.9890   -1.3255   10.1790 C   0  0  0  0  0  0  0  0  0  0  0  0
    2.5928    1.0352   10.5010 C   0  0  0  0  0  0  0  0  0  0  0  0
    0.9498    0.3913    8.8909 N   0  0  0  0  0  0  0  0  0  0  0  0
    0.0827    1.5486    8.8685 C   0  0  0  0  0  0  0  0  0  0  0  0
   -0.4749    1.6553    7.4538 C   0  0  0  0  0  0  0  0  0  0  0  0
   -0.0421    2.9038    6.7709 C   0  0  0  0  0  0  0  0  0  0  0  0
   -0.8835    3.9580    7.0230 O   0  0  0  0  0  0  0  0  0  0  0  0
   -1.0553    5.1633    6.4407 C   0  0  0  0  0  0  0  0  0  0  0  0
   -0.5967    5.5199    5.1954 C   0  0  0  0  0  0  0  0  0  0  0  0
   -0.8494    6.7994    4.7316 C   0  0  0  0  0  0  0  0  0  0  0  0
   -1.5438    7.7086    5.4906 C   0  0  0  0  0  0  0  0  0  0  0  0
   -2.0201    7.3740    6.7589 C   0  0  0  0  0  0  0  0  0  0  0  0
   -1.7719    6.1163    7.2139 C   0  0  0  0  0  0  0  0  0  0  0  0
   -2.3738    6.0176    8.5638 C   0  0  0  0  0  0  0  0  0  0  0  0
   -2.9653    7.3492    8.7774 C   0  0  0  0  0  0  0  0  0  0  0  0
   -2.7497    8.0844    7.7486 N   0  0  0  0  0  0  0  0  0  0  0  0
   -3.6807    7.7296    9.9942 C   0  0  0  0  0  0  0  0  0  0  0  0
   -4.2457    8.0113   10.9631 N   0  0  0  0  0  0  0  0  0  0  0  0
   -1.8827    1.7642    7.6050 O   0  0  0  0  0  0  0  0  0  0  0  0
  1  2  1  0
  2  3  1  0
  2  4  1  0
  2  5  1  0
  5  6  1  0
  6  7  1  0
  7  8  1  0
  8  9  1  0
  9 10  1  0
 10 11  2  0
 11 12  1  0
 12 13  2  0
 13 14  1  0
 14 15  2  0
 15 16  1  0
 16 17  1  0
 17 18  2  0
 17 19  1  0
 19 20  3  0
  7 21  1  0
 15 10  1  0
 18 14  1  0
M  END
$$$$
