
     RDKit          3D

 21 22  0  0  0  0  0  0  0  0999 V2000
   -0.2364    0.9299   10.9844 C   0  0  0  0  0  0  0  0  0  0  0  0
    0.9092    0.3915   10.1795 C   0  0  0  0  0  0  0  0  0  0  0  0
    0.8010   -1.1235   10.0987 C   0  0  0  0  0  0  0  0  0  0  0  0
    2.2310    0.7360   10.8321 C   0  0  0  0  0  0  0  0  0  0  0  0
    0.9431    0.8881    8.8260 N   0  0  0  0  0  0  0  0  0  0  0  0
   -0.3760    1.0101    8.2456 C   0  0  0  0  0  0  0  0  0  0  0  0
   -0.1820    1.4228    6.7911 C   0  0  0  0  0  0  0  0  0  0  0  0
    0.2465    2.8413    6.6608 C   0  0  0  0  0  0  0  0  0  0  0  0
   -0.8120    3.7139    6.6950 O   0  0  0  0  0  0  0  0  0  0  0  0
   -1.0232    4.9323    6.1545 C   0  0  0  0  0  0  0  0  0  0  0  0
   -0.6452    5.3210    4.8919 C   0  0  0  0  0  0  0  0  0  0  0  0
   -0.9298    6.6104    4.4766 C   0  0  0  0  0  0  0  0  0  0  0  0
   -1.5770    7.4980    5.3001 C   0  0  0  0  0  0  0  0  0  0  0  0
   -1.9714    7.1307    6.5873 C   0  0  0  0  0  0  0  0  0  0  0  0
   -1.6918    5.8633    6.9946 C   0  0  0  0  0  0  0  0  0  0  0  0
   -2.2068    5.7293    8.3770 C   0  0  0  0  0  0  0  0  0  0  0  0
   -2.7869    7.0529    8.6603 C   0  0  0  0  0  0  0  0  0  0  0  0
   -2.6386    7.8138    7.6382 N   0  0  0  0  0  0  0  0  0  0  0  0
   -3.4249    7.4006    9.9289 C   0  0  0  0  0  0  0  0  0  0  0  0
   -3.9294    7.6562   10.9375 N   0  0  0  0  0  0  0  0  0  0  0  0
   -1.4704    1.3510    6.1982 O   0  0  0  0  0  0  0  0  0  0  0  0
  1  2  1  0
  2  3  1  0
  2  4  1  0
  2  5  1  0
  5  6  1  0
  6  7  1  0
  7  8  1  0
  8  9  1  0
  9 10  1  0
 10 11  2  0
 11 12  1  0
 12 13  2  0
 13 14  1  0
 14 15  2  0
 15 16  1  0
 16 17  1  0
 17 18  2  0
 17 19  1  0
 19 20  3  0
  7 21  1  0
 15 10  1  0
 18 14  1  0
M  END
$$$$
