
     RDKit          3D

 21 22  0  0  0  0  0  0  0  0999 V2000
    1.0051   -2.3296   10.7877 C   0  0  0  0  0  0  0  0  0  0  0  0
    1.5235   -1.1943    9.9554 C   0  0  0  0  0  0  0  0  0  0  0  0
    2.2471   -1.7503    8.7385 C   0  0  0  0  0  0  0  0  0  0  0  0
    2.5051   -0.3555   10.7457 C   0  0  0  0  0  0  0  0  0  0  0  0
    0.4861   -0.3184    9.4696 N   0  0  0  0  0  0  0  0  0  0  0  0
    1.0135    0.8704    8.8369 C   0  0  0  0  0  0  0  0  0  0  0  0
   -0.1836    1.6876    8.3649 C   0  0  0  0  0  0  0  0  0  0  0  0
    0.2158    2.8031    7.4656 C   0  0  0  0  0  0  0  0  0  0  0  0
   -0.7572    3.7648    7.3593 O   0  0  0  0  0  0  0  0  0  0  0  0
   -0.8679    4.8903    6.6229 C   0  0  0  0  0  0  0  0  0  0  0  0
   -0.3789    5.0618    5.3502 C   0  0  0  0  0  0  0  0  0  0  0  0
   -0.5684    6.2796    4.7202 C   0  0  0  0  0  0  0  0  0  0  0  0
   -1.2305    7.3088    5.3426 C   0  0  0  0  0  0  0  0  0  0  0  0
   -1.7366    7.1629    6.6348 C   0  0  0  0  0  0  0  0  0  0  0  0
   -1.5504    5.9656    7.2532 C   0  0  0  0  0  0  0  0  0  0  0  0
   -2.1724    6.0693    8.5936 C   0  0  0  0  0  0  0  0  0  0  0  0
   -2.7063    7.4415    8.6225 C   0  0  0  0  0  0  0  0  0  0  0  0
   -2.4456    8.0265    7.5110 N   0  0  0  0  0  0  0  0  0  0  0  0
   -3.4185    8.0073    9.7669 C   0  0  0  0  0  0  0  0  0  0  0  0
   -3.9647    8.4630   10.6786 N   0  0  0  0  0  0  0  0  0  0  0  0
   -0.7120    2.3006    9.5318 O   0  0  0  0  0  0  0  0  0  0  0  0
  1  2  1  0
  2  3  1  0
  2  4  1  0
  2  5  1  0
  5  6  1  0
  6  7  1  0
  7  8  1  0
  8  9  1  0
  9 10  1  0
 10 11  2  0
 11 12  1  0
 12 13  2  0
 13 14  1  0
 14 15  2  0
 15 16  1  0
 16 17  1  0
 17 18  2  0
 17 19  1  0
 19 20  3  0
  7 21  1  0
 15 10  1  0
 18 14  1  0
M  END
$$$$
