
     RDKit          3D

 21 22  0  0  0  0  0  0  0  0999 V2000
    2.2054    1.7531   10.5975 C   0  0  0  0  0  0  0  0  0  0  0  0
    1.8211    0.4329    9.9979 C   0  0  0  0  0  0  0  0  0  0  0  0
    0.7630   -0.2276   10.8685 C   0  0  0  0  0  0  0  0  0  0  0  0
    3.0177   -0.4915    9.9263 C   0  0  0  0  0  0  0  0  0  0  0  0
    1.2699    0.5443    8.6700 N   0  0  0  0  0  0  0  0  0  0  0  0
    0.2733    1.5874    8.5675 C   0  0  0  0  0  0  0  0  0  0  0  0
   -0.2689    1.5418    7.1436 C   0  0  0  0  0  0  0  0  0  0  0  0
    0.1188    2.7420    6.3550 C   0  0  0  0  0  0  0  0  0  0  0  0
   -0.6311    3.8452    6.6766 O   0  0  0  0  0  0  0  0  0  0  0  0
   -0.7814    5.0591    6.1061 C   0  0  0  0  0  0  0  0  0  0  0  0
   -0.3268    5.4160    4.8595 C   0  0  0  0  0  0  0  0  0  0  0  0
   -0.5551    6.7047    4.4089 C   0  0  0  0  0  0  0  0  0  0  0  0
   -1.2216    7.6227    5.1823 C   0  0  0  0  0  0  0  0  0  0  0  0
   -1.6932    7.2880    6.4523 C   0  0  0  0  0  0  0  0  0  0  0  0
   -1.4690    6.0211    6.8942 C   0  0  0  0  0  0  0  0  0  0  0  0
   -2.0600    5.9243    8.2491 C   0  0  0  0  0  0  0  0  0  0  0  0
   -2.6194    7.2670    8.4797 C   0  0  0  0  0  0  0  0  0  0  0  0
   -2.3972    8.0059    7.4549 N   0  0  0  0  0  0  0  0  0  0  0  0
   -3.3144    7.6527    9.7065 C   0  0  0  0  0  0  0  0  0  0  0  0
   -3.8465    7.9633   10.6851 N   0  0  0  0  0  0  0  0  0  0  0  0
   -1.6821    1.6012    7.2705 O   0  0  0  0  0  0  0  0  0  0  0  0
  1  2  1  0
  2  3  1  0
  2  4  1  0
  2  5  1  0
  5  6  1  0
  6  7  1  0
  7  8  1  0
  8  9  1  0
  9 10  1  0
 10 11  2  0
 11 12  1  0
 12 13  2  0
 13 14  1  0
 14 15  2  0
 15 16  1  0
 16 17  1  0
 17 18  2  0
 17 19  1  0
 19 20  3  0
  7 21  1  0
 15 10  1  0
 18 14  1  0
M  END
$$$$
