
     RDKit          3D

 21 22  0  0  0  0  0  0  0  0999 V2000
   -0.1860   -1.3077   11.0521 C   0  0  0  0  0  0  0  0  0  0  0  0
   -0.2280    0.1364   10.6481 C   0  0  0  0  0  0  0  0  0  0  0  0
    0.9199    0.8801   11.3136 C   0  0  0  0  0  0  0  0  0  0  0  0
   -1.5257    0.7786   11.0901 C   0  0  0  0  0  0  0  0  0  0  0  0
   -0.0979    0.3385    9.2262 N   0  0  0  0  0  0  0  0  0  0  0  0
    0.0654    1.7322    8.8756 C   0  0  0  0  0  0  0  0  0  0  0  0
    0.6416    1.7680    7.4648 C   0  0  0  0  0  0  0  0  0  0  0  0
   -0.2350    2.5073    6.5175 C   0  0  0  0  0  0  0  0  0  0  0  0
   -0.4321    3.8118    6.8947 O   0  0  0  0  0  0  0  0  0  0  0  0
   -0.8314    4.9161    6.2296 C   0  0  0  0  0  0  0  0  0  0  0  0
   -0.6689    5.1385    4.8833 C   0  0  0  0  0  0  0  0  0  0  0  0
   -1.1302    6.3260    4.3420 C   0  0  0  0  0  0  0  0  0  0  0  0
   -1.7407    7.2759    5.1230 C   0  0  0  0  0  0  0  0  0  0  0  0
   -1.9179    7.0770    6.4928 C   0  0  0  0  0  0  0  0  0  0  0  0
   -1.4648    5.9096    7.0241 C   0  0  0  0  0  0  0  0  0  0  0  0
   -1.7704    5.9460    8.4731 C   0  0  0  0  0  0  0  0  0  0  0  0
   -2.4305    7.2497    8.6552 C   0  0  0  0  0  0  0  0  0  0  0  0
   -2.4973    7.8578    7.5277 N   0  0  0  0  0  0  0  0  0  0  0  0
   -2.9191    7.7347    9.9449 C   0  0  0  0  0  0  0  0  0  0  0  0
   -3.2926    8.1059   10.9744 N   0  0  0  0  0  0  0  0  0  0  0  0
    0.6445    0.4198    7.0187 O   0  0  0  0  0  0  0  0  0  0  0  0
  1  2  1  0
  2  3  1  0
  2  4  1  0
  2  5  1  0
  5  6  1  0
  6  7  1  0
  7  8  1  0
  8  9  1  0
  9 10  1  0
 10 11  2  0
 11 12  1  0
 12 13  2  0
 13 14  1  0
 14 15  2  0
 15 16  1  0
 16 17  1  0
 17 18  2  0
 17 19  1  0
 19 20  3  0
  7 21  1  0
 15 10  1  0
 18 14  1  0
M  END
$$$$
