
     RDKit          3D

 21 22  0  0  0  0  0  0  0  0999 V2000
    1.6934   -1.5241    9.5932 C   0  0  0  0  0  0  0  0  0  0  0  0
    1.1836   -0.2157   10.1208 C   0  0  0  0  0  0  0  0  0  0  0  0
    2.3492    0.7452   10.2985 C   0  0  0  0  0  0  0  0  0  0  0  0
    0.5177   -0.4040   11.4672 C   0  0  0  0  0  0  0  0  0  0  0  0
    0.2339    0.4253    9.2451 N   0  0  0  0  0  0  0  0  0  0  0  0
    0.8696    1.2755    8.2628 C   0  0  0  0  0  0  0  0  0  0  0  0
   -0.2394    1.8356    7.3796 C   0  0  0  0  0  0  0  0  0  0  0  0
    0.1635    3.0969    6.7020 C   0  0  0  0  0  0  0  0  0  0  0  0
   -0.7962    4.0730    6.7974 O   0  0  0  0  0  0  0  0  0  0  0  0
   -0.9138    5.3086    6.2674 C   0  0  0  0  0  0  0  0  0  0  0  0
   -0.4604    5.6910    5.0279 C   0  0  0  0  0  0  0  0  0  0  0  0
   -0.6525    7.0000    4.6210 C   0  0  0  0  0  0  0  0  0  0  0  0
   -1.2824    7.9130    5.4302 C   0  0  0  0  0  0  0  0  0  0  0  0
   -1.7519    7.5525    6.6939 C   0  0  0  0  0  0  0  0  0  0  0  0
   -1.5632    6.2657    7.0930 C   0  0  0  0  0  0  0  0  0  0  0  0
   -2.1438    6.1439    8.4503 C   0  0  0  0  0  0  0  0  0  0  0  0
   -2.6586    7.4952    8.7294 C   0  0  0  0  0  0  0  0  0  0  0  0
   -2.4232    8.2593    7.7263 N   0  0  0  0  0  0  0  0  0  0  0  0
   -3.3292    7.8628    9.9752 C   0  0  0  0  0  0  0  0  0  0  0  0
   -3.8772    8.1473   10.9529 N   0  0  0  0  0  0  0  0  0  0  0  0
   -1.2911    2.1903    8.2655 O   0  0  0  0  0  0  0  0  0  0  0  0
  1  2  1  0
  2  3  1  0
  2  4  1  0
  2  5  1  0
  5  6  1  0
  6  7  1  0
  7  8  1  0
  8  9  1  0
  9 10  1  0
 10 11  2  0
 11 12  1  0
 12 13  2  0
 13 14  1  0
 14 15  2  0
 15 16  1  0
 16 17  1  0
 17 18  2  0
 17 19  1  0
 19 20  3  0
  7 21  1  0
 15 10  1  0
 18 14  1  0
M  END
$$$$
