
     RDKit          3D

 21 22  0  0  0  0  0  0  0  0999 V2000
   -0.6678   -1.8233   10.3664 C   0  0  0  0  0  0  0  0  0  0  0  0
    0.5841   -1.1855   10.8917 C   0  0  0  0  0  0  0  0  0  0  0  0
    1.7194   -2.1970   10.8548 C   0  0  0  0  0  0  0  0  0  0  0  0
    0.3964   -0.7388   12.3259 C   0  0  0  0  0  0  0  0  0  0  0  0
    1.0100   -0.0404   10.1255 N   0  0  0  0  0  0  0  0  0  0  0  0
   -0.0823    0.5950    9.4219 C   0  0  0  0  0  0  0  0  0  0  0  0
    0.5101    1.7751    8.6603 C   0  0  0  0  0  0  0  0  0  0  0  0
   -0.3959    2.2640    7.5867 C   0  0  0  0  0  0  0  0  0  0  0  0
   -0.6533    3.6079    7.6896 O   0  0  0  0  0  0  0  0  0  0  0  0
   -0.8917    4.5757    6.7797 C   0  0  0  0  0  0  0  0  0  0  0  0
   -0.6536    4.4773    5.4299 C   0  0  0  0  0  0  0  0  0  0  0  0
   -0.9481    5.5598    4.6190 C   0  0  0  0  0  0  0  0  0  0  0  0
   -1.4684    6.7191    5.1387 C   0  0  0  0  0  0  0  0  0  0  0  0
   -1.7192    6.8471    6.5054 C   0  0  0  0  0  0  0  0  0  0  0  0
   -1.4301    5.7828    7.3017 C   0  0  0  0  0  0  0  0  0  0  0  0
   -1.7828    6.1703    8.6873 C   0  0  0  0  0  0  0  0  0  0  0  0
   -2.2875    7.5464    8.5442 C   0  0  0  0  0  0  0  0  0  0  0  0
   -2.2386    7.8950    7.3107 N   0  0  0  0  0  0  0  0  0  0  0  0
   -2.7618    8.3536    9.6669 C   0  0  0  0  0  0  0  0  0  0  0  0
   -3.1419    9.0069   10.5421 N   0  0  0  0  0  0  0  0  0  0  0  0
    1.6573    1.2649    7.9968 O   0  0  0  0  0  0  0  0  0  0  0  0
  1  2  1  0
  2  3  1  0
  2  4  1  0
  2  5  1  0
  5  6  1  0
  6  7  1  0
  7  8  1  0
  8  9  1  0
  9 10  1  0
 10 11  2  0
 11 12  1  0
 12 13  2  0
 13 14  1  0
 14 15  2  0
 15 16  1  0
 16 17  1  0
 17 18  2  0
 17 19  1  0
 19 20  3  0
  7 21  1  0
 15 10  1  0
 18 14  1  0
M  END
$$$$
