
     RDKit          3D

 21 22  0  0  0  0  0  0  0  0999 V2000
    1.8120    1.4642   10.5461 C   0  0  0  0  0  0  0  0  0  0  0  0
    0.8798    0.3854   10.0797 C   0  0  0  0  0  0  0  0  0  0  0  0
   -0.4081    0.4480   10.8864 C   0  0  0  0  0  0  0  0  0  0  0  0
    1.4981   -0.9814   10.2829 C   0  0  0  0  0  0  0  0  0  0  0  0
    0.5165    0.5026    8.6890 N   0  0  0  0  0  0  0  0  0  0  0  0
    0.2616    1.8705    8.2945 C   0  0  0  0  0  0  0  0  0  0  0  0
    0.0097    1.8569    6.7912 C   0  0  0  0  0  0  0  0  0  0  0  0
    0.3039    3.1709    6.1593 C   0  0  0  0  0  0  0  0  0  0  0  0
   -0.6773    4.0996    6.3996 O   0  0  0  0  0  0  0  0  0  0  0  0
   -0.8692    5.3698    5.9858 C   0  0  0  0  0  0  0  0  0  0  0  0
   -0.4942    5.8758    4.7645 C   0  0  0  0  0  0  0  0  0  0  0  0
   -0.7569    7.2053    4.4831 C   0  0  0  0  0  0  0  0  0  0  0  0
   -1.3797    8.0180    5.3978 C   0  0  0  0  0  0  0  0  0  0  0  0
   -1.7704    7.5311    6.6458 C   0  0  0  0  0  0  0  0  0  0  0  0
   -1.5123    6.2243    6.9216 C   0  0  0  0  0  0  0  0  0  0  0  0
   -2.0183    5.9622    8.2889 C   0  0  0  0  0  0  0  0  0  0  0  0
   -2.5700    7.2614    8.7090 C   0  0  0  0  0  0  0  0  0  0  0  0
   -2.4153    8.1179    7.7666 N   0  0  0  0  0  0  0  0  0  0  0  0
   -3.1903    7.4922   10.0124 C   0  0  0  0  0  0  0  0  0  0  0  0
   -3.6992    7.6718   11.0352 N   0  0  0  0  0  0  0  0  0  0  0  0
   -1.3882    1.6581    6.6396 O   0  0  0  0  0  0  0  0  0  0  0  0
  1  2  1  0
  2  3  1  0
  2  4  1  0
  2  5  1  0
  5  6  1  0
  6  7  1  0
  7  8  1  0
  8  9  1  0
  9 10  1  0
 10 11  2  0
 11 12  1  0
 12 13  2  0
 13 14  1  0
 14 15  2  0
 15 16  1  0
 16 17  1  0
 17 18  2  0
 17 19  1  0
 19 20  3  0
  7 21  1  0
 15 10  1  0
 18 14  1  0
M  END
$$$$
