
     RDKit          3D

 21 22  0  0  0  0  0  0  0  0999 V2000
    2.1526   -2.4570    9.9647 C   0  0  0  0  0  0  0  0  0  0  0  0
    0.9350   -1.5810    9.9473 C   0  0  0  0  0  0  0  0  0  0  0  0
    0.3108   -1.5570   11.3342 C   0  0  0  0  0  0  0  0  0  0  0  0
   -0.0953   -2.1152    8.9753 C   0  0  0  0  0  0  0  0  0  0  0  0
    1.2166   -0.2141    9.5842 N   0  0  0  0  0  0  0  0  0  0  0  0
    0.0287    0.6105    9.5597 C   0  0  0  0  0  0  0  0  0  0  0  0
    0.4840    2.0319    9.2498 C   0  0  0  0  0  0  0  0  0  0  0  0
   -0.0216    2.5109    7.9355 C   0  0  0  0  0  0  0  0  0  0  0  0
   -0.3941    3.8312    7.9668 O   0  0  0  0  0  0  0  0  0  0  0  0
   -0.6076    4.7544    7.0058 C   0  0  0  0  0  0  0  0  0  0  0  0
   -0.2999    4.6058    5.6748 C   0  0  0  0  0  0  0  0  0  0  0  0
   -0.5769    5.6463    4.8049 C   0  0  0  0  0  0  0  0  0  0  0  0
   -1.1480    6.8134    5.2484 C   0  0  0  0  0  0  0  0  0  0  0  0
   -1.4699    6.9920    6.5944 C   0  0  0  0  0  0  0  0  0  0  0  0
   -1.1979    5.9689    7.4487 C   0  0  0  0  0  0  0  0  0  0  0  0
   -1.6282    6.4050    8.7974 C   0  0  0  0  0  0  0  0  0  0  0  0
   -2.1552    7.7614    8.5711 C   0  0  0  0  0  0  0  0  0  0  0  0
   -2.0519    8.0596    7.3277 N   0  0  0  0  0  0  0  0  0  0  0  0
   -2.7029    8.6029    9.6335 C   0  0  0  0  0  0  0  0  0  0  0  0
   -3.1531    9.2577   10.4737 N   0  0  0  0  0  0  0  0  0  0  0  0
    1.8963    1.9609    9.1193 O   0  0  0  0  0  0  0  0  0  0  0  0
  1  2  1  0
  2  3  1  0
  2  4  1  0
  2  5  1  0
  5  6  1  0
  6  7  1  0
  7  8  1  0
  8  9  1  0
  9 10  1  0
 10 11  2  0
 11 12  1  0
 12 13  2  0
 13 14  1  0
 14 15  2  0
 15 16  1  0
 16 17  1  0
 17 18  2  0
 17 19  1  0
 19 20  3  0
  7 21  1  0
 15 10  1  0
 18 14  1  0
M  END
$$$$
