
     RDKit          3D

 21 22  0  0  0  0  0  0  0  0999 V2000
    1.7655    2.1157   10.4359 C   0  0  0  0  0  0  0  0  0  0  0  0
    1.1343    0.8679    9.8932 C   0  0  0  0  0  0  0  0  0  0  0  0
   -0.2298    0.6714   10.5368 C   0  0  0  0  0  0  0  0  0  0  0  0
    1.9845   -0.3439   10.2100 C   0  0  0  0  0  0  0  0  0  0  0  0
    0.9299    0.9021    8.4660 N   0  0  0  0  0  0  0  0  0  0  0  0
   -0.0765    1.8631    8.0716 C   0  0  0  0  0  0  0  0  0  0  0  0
   -0.2198    1.7562    6.5578 C   0  0  0  0  0  0  0  0  0  0  0  0
    0.0442    3.0508    5.8746 C   0  0  0  0  0  0  0  0  0  0  0  0
   -0.8032    4.0462    6.2919 O   0  0  0  0  0  0  0  0  0  0  0  0
   -0.9508    5.3413    5.9424 C   0  0  0  0  0  0  0  0  0  0  0  0
   -0.5246    5.9024    4.7626 C   0  0  0  0  0  0  0  0  0  0  0  0
   -0.7460    7.2515    4.5463 C   0  0  0  0  0  0  0  0  0  0  0  0
   -1.3779    8.0297    5.4844 C   0  0  0  0  0  0  0  0  0  0  0  0
   -1.8202    7.4866    6.6914 C   0  0  0  0  0  0  0  0  0  0  0  0
   -1.6028    6.1606    6.9032 C   0  0  0  0  0  0  0  0  0  0  0  0
   -2.1587    5.8385    8.2379 C   0  0  0  0  0  0  0  0  0  0  0  0
   -2.6919    7.1271    8.7112 C   0  0  0  0  0  0  0  0  0  0  0  0
   -2.4864    8.0287    7.8221 N   0  0  0  0  0  0  0  0  0  0  0  0
   -3.3480    7.3034   10.0055 C   0  0  0  0  0  0  0  0  0  0  0  0
   -3.8718    7.4233   11.0295 N   0  0  0  0  0  0  0  0  0  0  0  0
   -1.5901    1.4663    6.3231 O   0  0  0  0  0  0  0  0  0  0  0  0
  1  2  1  0
  2  3  1  0
  2  4  1  0
  2  5  1  0
  5  6  1  0
  6  7  1  0
  7  8  1  0
  8  9  1  0
  9 10  1  0
 10 11  2  0
 11 12  1  0
 12 13  2  0
 13 14  1  0
 14 15  2  0
 15 16  1  0
 16 17  1  0
 17 18  2  0
 17 19  1  0
 19 20  3  0
  7 21  1  0
 15 10  1  0
 18 14  1  0
M  END
$$$$
