
     RDKit          3D

 21 22  0  0  0  0  0  0  0  0999 V2000
    1.6323   -0.5971   10.2806 C   0  0  0  0  0  0  0  0  0  0  0  0
    0.7946    0.5600    9.8226 C   0  0  0  0  0  0  0  0  0  0  0  0
    1.4377    1.8605   10.2796 C   0  0  0  0  0  0  0  0  0  0  0  0
   -0.5944    0.4851   10.4198 C   0  0  0  0  0  0  0  0  0  0  0  0
    0.6549    0.6356    8.3893 N   0  0  0  0  0  0  0  0  0  0  0  0
   -0.1507    1.7604    7.9679 C   0  0  0  0  0  0  0  0  0  0  0  0
   -0.2504    1.6877    6.4486 C   0  0  0  0  0  0  0  0  0  0  0  0
    0.0467    2.9938    5.8018 C   0  0  0  0  0  0  0  0  0  0  0  0
   -0.7709    3.9997    6.2519 O   0  0  0  0  0  0  0  0  0  0  0  0
   -0.8991    5.3028    5.9249 C   0  0  0  0  0  0  0  0  0  0  0  0
   -0.4805    5.8743    4.7474 C   0  0  0  0  0  0  0  0  0  0  0  0
   -0.6792    7.2306    4.5556 C   0  0  0  0  0  0  0  0  0  0  0  0
   -1.2816    8.0057    5.5155 C   0  0  0  0  0  0  0  0  0  0  0  0
   -1.7154    7.4520    6.7208 C   0  0  0  0  0  0  0  0  0  0  0  0
   -1.5203    6.1189    6.9085 C   0  0  0  0  0  0  0  0  0  0  0  0
   -2.0615    5.7864    8.2467 C   0  0  0  0  0  0  0  0  0  0  0  0
   -2.5625    7.0772    8.7482 C   0  0  0  0  0  0  0  0  0  0  0  0
   -2.3535    7.9887    7.8702 N   0  0  0  0  0  0  0  0  0  0  0  0
   -3.1951    7.2454   10.0554 C   0  0  0  0  0  0  0  0  0  0  0  0
   -3.6849    7.3627   11.0963 N   0  0  0  0  0  0  0  0  0  0  0  0
   -1.6160    1.4177    6.1676 O   0  0  0  0  0  0  0  0  0  0  0  0
  1  2  1  0
  2  3  1  0
  2  4  1  0
  2  5  1  0
  5  6  1  0
  6  7  1  0
  7  8  1  0
  8  9  1  0
  9 10  1  0
 10 11  2  0
 11 12  1  0
 12 13  2  0
 13 14  1  0
 14 15  2  0
 15 16  1  0
 16 17  1  0
 17 18  2  0
 17 19  1  0
 19 20  3  0
  7 21  1  0
 15 10  1  0
 18 14  1  0
M  END
$$$$
