
     RDKit          3D

 21 22  0  0  0  0  0  0  0  0999 V2000
    2.8800   -0.1075   10.1751 C   0  0  0  0  0  0  0  0  0  0  0  0
    1.6943   -0.9583    9.8279 C   0  0  0  0  0  0  0  0  0  0  0  0
    0.9754   -1.3670   11.1046 C   0  0  0  0  0  0  0  0  0  0  0  0
    2.1305   -2.2168    9.1085 C   0  0  0  0  0  0  0  0  0  0  0  0
    0.7296   -0.2854    8.9936 N   0  0  0  0  0  0  0  0  0  0  0  0
    0.7259    1.1472    9.1927 C   0  0  0  0  0  0  0  0  0  0  0  0
   -0.3638    1.7155    8.2909 C   0  0  0  0  0  0  0  0  0  0  0  0
    0.1278    2.8452    7.4574 C   0  0  0  0  0  0  0  0  0  0  0  0
   -0.7821    3.8688    7.3726 O   0  0  0  0  0  0  0  0  0  0  0  0
   -0.8300    5.0051    6.6461 C   0  0  0  0  0  0  0  0  0  0  0  0
   -0.2646    5.1834    5.4064 C   0  0  0  0  0  0  0  0  0  0  0  0
   -0.3958    6.4121    4.7828 C   0  0  0  0  0  0  0  0  0  0  0  0
   -1.0750    7.4454    5.3794 C   0  0  0  0  0  0  0  0  0  0  0  0
   -1.6581    7.2928    6.6379 C   0  0  0  0  0  0  0  0  0  0  0  0
   -1.5292    6.0848    7.2500 C   0  0  0  0  0  0  0  0  0  0  0  0
   -2.2264    6.1833    8.5533 C   0  0  0  0  0  0  0  0  0  0  0  0
   -2.7370    7.5645    8.5694 C   0  0  0  0  0  0  0  0  0  0  0  0
   -2.4018    8.1583    7.4830 N   0  0  0  0  0  0  0  0  0  0  0  0
   -3.5049    8.1290    9.6779 C   0  0  0  0  0  0  0  0  0  0  0  0
   -4.1282    8.5774   10.5426 N   0  0  0  0  0  0  0  0  0  0  0  0
   -1.3327    2.2729    9.1668 O   0  0  0  0  0  0  0  0  0  0  0  0
  1  2  1  0
  2  3  1  0
  2  4  1  0
  2  5  1  0
  5  6  1  0
  6  7  1  0
  7  8  1  0
  8  9  1  0
  9 10  1  0
 10 11  2  0
 11 12  1  0
 12 13  2  0
 13 14  1  0
 14 15  2  0
 15 16  1  0
 16 17  1  0
 17 18  2  0
 17 19  1  0
 19 20  3  0
  7 21  1  0
 15 10  1  0
 18 14  1  0
M  END
$$$$
