
     RDKit          3D

 21 22  0  0  0  0  0  0  0  0999 V2000
    2.4416   -1.2297   10.1807 C   0  0  0  0  0  0  0  0  0  0  0  0
    1.3068   -0.2491   10.2092 C   0  0  0  0  0  0  0  0  0  0  0  0
    1.7820    1.0546   10.8323 C   0  0  0  0  0  0  0  0  0  0  0  0
    0.1606   -0.7805   11.0431 C   0  0  0  0  0  0  0  0  0  0  0  0
    0.7900    0.0687    8.9009 N   0  0  0  0  0  0  0  0  0  0  0  0
    0.3663    1.4472    8.7905 C   0  0  0  0  0  0  0  0  0  0  0  0
   -0.1505    1.6378    7.3692 C   0  0  0  0  0  0  0  0  0  0  0  0
    0.2405    2.9553    6.8001 C   0  0  0  0  0  0  0  0  0  0  0  0
   -0.7688    3.8815    6.8807 O   0  0  0  0  0  0  0  0  0  0  0  0
   -0.9708    5.0816    6.2974 C   0  0  0  0  0  0  0  0  0  0  0  0
   -0.5670    5.4309    5.0312 C   0  0  0  0  0  0  0  0  0  0  0  0
   -0.8451    6.7057    4.5692 C   0  0  0  0  0  0  0  0  0  0  0  0
   -1.5110    7.6176    5.3503 C   0  0  0  0  0  0  0  0  0  0  0  0
   -1.9316    7.2904    6.6400 C   0  0  0  0  0  0  0  0  0  0  0  0
   -1.6585    6.0372    7.0933 C   0  0  0  0  0  0  0  0  0  0  0  0
   -2.2022    5.9461    8.4682 C   0  0  0  0  0  0  0  0  0  0  0  0
   -2.7904    7.2766    8.6969 C   0  0  0  0  0  0  0  0  0  0  0  0
   -2.6219    8.0050    7.6545 N   0  0  0  0  0  0  0  0  0  0  0  0
   -3.4554    7.6630    9.9401 C   0  0  0  0  0  0  0  0  0  0  0  0
   -3.9728    7.9867   10.9223 N   0  0  0  0  0  0  0  0  0  0  0  0
   -1.5661    1.6671    7.4778 O   0  0  0  0  0  0  0  0  0  0  0  0
  1  2  1  0
  2  3  1  0
  2  4  1  0
  2  5  1  0
  5  6  1  0
  6  7  1  0
  7  8  1  0
  8  9  1  0
  9 10  1  0
 10 11  2  0
 11 12  1  0
 12 13  2  0
 13 14  1  0
 14 15  2  0
 15 16  1  0
 16 17  1  0
 17 18  2  0
 17 19  1  0
 19 20  3  0
  7 21  1  0
 15 10  1  0
 18 14  1  0
M  END
$$$$
