
     RDKit          3D

 21 22  0  0  0  0  0  0  0  0999 V2000
    2.3796   -0.3258   10.7632 C   0  0  0  0  0  0  0  0  0  0  0  0
    1.2219    0.4545   10.2144 C   0  0  0  0  0  0  0  0  0  0  0  0
    0.9773    1.6756   11.0877 C   0  0  0  0  0  0  0  0  0  0  0  0
   -0.0377   -0.3852   10.2137 C   0  0  0  0  0  0  0  0  0  0  0  0
    1.4359    0.9295    8.8697 N   0  0  0  0  0  0  0  0  0  0  0  0
    0.2974    1.6529    8.3480 C   0  0  0  0  0  0  0  0  0  0  0  0
    0.5145    1.7942    6.8459 C   0  0  0  0  0  0  0  0  0  0  0  0
   -0.5435    2.6158    6.1991 C   0  0  0  0  0  0  0  0  0  0  0  0
   -0.6547    3.8632    6.7598 O   0  0  0  0  0  0  0  0  0  0  0  0
   -0.7823    5.1022    6.2402 C   0  0  0  0  0  0  0  0  0  0  0  0
   -0.3770    5.4859    4.9846 C   0  0  0  0  0  0  0  0  0  0  0  0
   -0.5732    6.7985    4.5913 C   0  0  0  0  0  0  0  0  0  0  0  0
   -1.1602    7.7137    5.4297 C   0  0  0  0  0  0  0  0  0  0  0  0
   -1.5804    7.3520    6.7102 C   0  0  0  0  0  0  0  0  0  0  0  0
   -1.3877    6.0617    7.0959 C   0  0  0  0  0  0  0  0  0  0  0  0
   -1.9128    5.9393    8.4756 C   0  0  0  0  0  0  0  0  0  0  0  0
   -2.4025    7.2941    8.7813 C   0  0  0  0  0  0  0  0  0  0  0  0
   -2.2016    8.0605    7.7725 N   0  0  0  0  0  0  0  0  0  0  0  0
   -3.0174    7.6624   10.0554 C   0  0  0  0  0  0  0  0  0  0  0  0
   -3.4931    7.9394   11.0724 N   0  0  0  0  0  0  0  0  0  0  0  0
    0.3687    0.4857    6.3138 O   0  0  0  0  0  0  0  0  0  0  0  0
  1  2  1  0
  2  3  1  0
  2  4  1  0
  2  5  1  0
  5  6  1  0
  6  7  1  0
  7  8  1  0
  8  9  1  0
  9 10  1  0
 10 11  2  0
 11 12  1  0
 12 13  2  0
 13 14  1  0
 14 15  2  0
 15 16  1  0
 16 17  1  0
 17 18  2  0
 17 19  1  0
 19 20  3  0
  7 21  1  0
 15 10  1  0
 18 14  1  0
M  END
$$$$
