
     RDKit          3D

 21 22  0  0  0  0  0  0  0  0999 V2000
    0.5937    0.7981   11.9713 C   0  0  0  0  0  0  0  0  0  0  0  0
   -0.2015   -0.0463   11.0201 C   0  0  0  0  0  0  0  0  0  0  0  0
   -1.6854    0.1966   11.2494 C   0  0  0  0  0  0  0  0  0  0  0  0
    0.0769   -1.5167   11.2482 C   0  0  0  0  0  0  0  0  0  0  0  0
    0.0673    0.2434    9.6332 N   0  0  0  0  0  0  0  0  0  0  0  0
    0.3264    1.6468    9.3986 C   0  0  0  0  0  0  0  0  0  0  0  0
    0.8305    1.7692    7.9653 C   0  0  0  0  0  0  0  0  0  0  0  0
   -0.1482    2.4569    7.0811 C   0  0  0  0  0  0  0  0  0  0  0  0
   -0.3297    3.7732    7.4238 O   0  0  0  0  0  0  0  0  0  0  0  0
   -0.7034    4.8668    6.7268 C   0  0  0  0  0  0  0  0  0  0  0  0
   -0.5685    5.0317    5.3693 C   0  0  0  0  0  0  0  0  0  0  0  0
   -0.9975    6.2154    4.7943 C   0  0  0  0  0  0  0  0  0  0  0  0
   -1.5494    7.2176    5.5532 C   0  0  0  0  0  0  0  0  0  0  0  0
   -1.6975    7.0777    6.9337 C   0  0  0  0  0  0  0  0  0  0  0  0
   -1.2762    5.9139    7.4981 C   0  0  0  0  0  0  0  0  0  0  0  0
   -1.5412    6.0169    8.9519 C   0  0  0  0  0  0  0  0  0  0  0  0
   -2.1450    7.3519    9.1001 C   0  0  0  0  0  0  0  0  0  0  0  0
   -2.2182    7.9193    7.9520 N   0  0  0  0  0  0  0  0  0  0  0  0
   -2.5796    7.9041   10.3820 C   0  0  0  0  0  0  0  0  0  0  0  0
   -2.9301    8.3574   11.3864 N   0  0  0  0  0  0  0  0  0  0  0  0
    0.9247    0.4386    7.4782 O   0  0  0  0  0  0  0  0  0  0  0  0
  1  2  1  0
  2  3  1  0
  2  4  1  0
  2  5  1  0
  5  6  1  0
  6  7  1  0
  7  8  1  0
  8  9  1  0
  9 10  1  0
 10 11  2  0
 11 12  1  0
 12 13  2  0
 13 14  1  0
 14 15  2  0
 15 16  1  0
 16 17  1  0
 17 18  2  0
 17 19  1  0
 19 20  3  0
  7 21  1  0
 15 10  1  0
 18 14  1  0
M  END
$$$$
