
     RDKit          3D

 26 29  0  0  0  0  0  0  0  0999 V2000
  -10.6446    3.4975   10.0971 C   0  0  0  0  0  0  0  0  0  0  0  0
  -10.3135    2.5184   11.2343 C   0  0  0  0  0  0  0  0  0  0  0  0
  -11.4400    1.5014   11.2331 C   0  0  0  0  0  0  0  0  0  0  0  0
   -8.9527    1.8994   11.0050 C   0  0  0  0  0  0  0  0  0  0  0  0
   -8.7098    0.8162   12.0269 C   0  0  0  0  0  0  0  0  0  0  0  0
   -8.3198    1.1057   13.3079 C   0  0  0  0  0  0  0  0  0  0  0  0
   -8.1113    0.0987   14.2194 C   0  0  0  0  0  0  0  0  0  0  0  0
   -8.2863   -1.2162   13.8755 C   0  0  0  0  0  0  0  0  0  0  0  0
   -8.6774   -1.5337   12.5956 C   0  0  0  0  0  0  0  0  0  0  0  0
   -8.8813   -0.5152   11.6981 C   0  0  0  0  0  0  0  0  0  0  0  0
   -7.8424    2.8558   10.9712 C   0  0  0  0  0  0  0  0  0  0  0  0
   -7.9470    3.8956   11.7299 O   0  0  0  0  0  0  0  0  0  0  0  0
   -6.6680    2.7753   10.2069 N   0  0  0  0  0  0  0  0  0  0  0  0
   -6.5295    1.7396    9.2054 C   0  0  0  0  0  0  0  0  0  0  0  0
   -6.2071    2.3905    7.9042 C   0  0  0  0  0  0  0  0  0  0  0  0
   -4.9293    3.1706    7.9849 C   0  0  0  0  0  0  0  0  0  0  0  0
   -4.7763    4.0186    9.1801 C   0  0  0  0  0  0  0  0  0  0  0  0
   -5.6040    3.7014   10.3768 C   0  0  0  0  0  0  0  0  0  0  0  0
   -3.8506    2.2566    7.9132 O   0  0  0  0  0  0  0  0  0  0  0  0
   -2.7807    2.8471    7.2590 C   0  0  0  0  0  0  0  0  0  0  0  0
   -1.4073    2.5712    7.2251 C   0  0  0  0  0  0  0  0  0  0  0  0
   -0.5568    3.3479    6.4652 C   0  0  0  0  0  0  0  0  0  0  0  0
   -1.1189    4.3939    5.7513 C   0  0  0  0  0  0  0  0  0  0  0  0
   -2.4591    4.6721    5.7774 C   0  0  0  0  0  0  0  0  0  0  0  0
   -3.3067    3.8966    6.5359 C   0  0  0  0  0  0  0  0  0  0  0  0
   -4.6953    3.9117    6.7761 O   0  0  0  0  0  0  0  0  0  0  0  0
  1  2  1  0
  2  3  1  0
  2  4  1  0
  4  5  1  0
  5  6  2  0
  6  7  1  0
  7  8  2  0
  8  9  1  0
  9 10  2  0
  4 11  1  0
 11 12  2  0
 11 13  1  0
 13 14  1  0
 14 15  1  0
 15 16  1  0
 16 17  1  0
 17 18  1  0
 16 19  1  0
 19 20  1  0
 20 21  2  0
 21 22  1  0
 22 23  2  0
 23 24  1  0
 24 25  2  0
 25 26  1  0
 10  5  1  0
 18 13  1  0
 26 16  1  0
 25 20  1  0
M  END
$$$$
