
     RDKit          3D

 26 29  0  0  0  0  0  0  0  0999 V2000
   -4.1339    2.7413    9.8416 C   0  0  0  0  0  0  0  0  0  0  0  0
   -4.4434    2.0468    8.5061 C   0  0  0  0  0  0  0  0  0  0  0  0
   -4.4267    3.1496    7.4635 C   0  0  0  0  0  0  0  0  0  0  0  0
   -3.4256    0.9603    8.2394 C   0  0  0  0  0  0  0  0  0  0  0  0
   -2.9609    0.3689    9.5475 C   0  0  0  0  0  0  0  0  0  0  0  0
   -3.4607   -0.8146   10.0233 C   0  0  0  0  0  0  0  0  0  0  0  0
   -3.0147   -1.3326   11.2154 C   0  0  0  0  0  0  0  0  0  0  0  0
   -2.0631   -0.6840   11.9583 C   0  0  0  0  0  0  0  0  0  0  0  0
   -1.5453    0.5061   11.5029 C   0  0  0  0  0  0  0  0  0  0  0  0
   -2.0022    1.0088   10.3100 C   0  0  0  0  0  0  0  0  0  0  0  0
   -2.2895    1.3749    7.4111 C   0  0  0  0  0  0  0  0  0  0  0  0
   -1.5632    2.3427    7.8623 O   0  0  0  0  0  0  0  0  0  0  0  0
   -1.8924    0.8403    6.1757 N   0  0  0  0  0  0  0  0  0  0  0  0
   -2.6629   -0.2249    5.5702 C   0  0  0  0  0  0  0  0  0  0  0  0
   -3.0446    0.2010    4.1941 C   0  0  0  0  0  0  0  0  0  0  0  0
   -1.8353    0.4737    3.3510 C   0  0  0  0  0  0  0  0  0  0  0  0
   -0.7762    1.2691    3.9965 C   0  0  0  0  0  0  0  0  0  0  0  0
   -0.7520    1.3303    5.4843 C   0  0  0  0  0  0  0  0  0  0  0  0
   -1.3028   -0.7687    2.9305 O   0  0  0  0  0  0  0  0  0  0  0  0
   -0.7451   -0.6350    1.6686 C   0  0  0  0  0  0  0  0  0  0  0  0
    0.1955   -1.3866    0.9517 C   0  0  0  0  0  0  0  0  0  0  0  0
    0.5719   -1.0058   -0.3201 C   0  0  0  0  0  0  0  0  0  0  0  0
   -0.0161    0.1351   -0.8419 C   0  0  0  0  0  0  0  0  0  0  0  0
   -0.9359    0.8765   -0.1503 C   0  0  0  0  0  0  0  0  0  0  0  0
   -1.3106    0.4958    1.1185 C   0  0  0  0  0  0  0  0  0  0  0  0
   -2.2041    1.0200    2.0740 O   0  0  0  0  0  0  0  0  0  0  0  0
  1  2  1  0
  2  3  1  0
  2  4  1  0
  4  5  1  0
  5  6  2  0
  6  7  1  0
  7  8  2  0
  8  9  1  0
  9 10  2  0
  4 11  1  0
 11 12  2  0
 11 13  1  0
 13 14  1  0
 14 15  1  0
 15 16  1  0
 16 17  1  0
 17 18  1  0
 16 19  1  0
 19 20  1  0
 20 21  2  0
 21 22  1  0
 22 23  2  0
 23 24  1  0
 24 25  2  0
 25 26  1  0
 10  5  1  0
 18 13  1  0
 26 16  1  0
 25 20  1  0
M  END
$$$$
