
     RDKit          3D

 26 29  0  0  0  0  0  0  0  0999 V2000
   -8.6768    2.5345    8.7405 C   0  0  0  0  0  0  0  0  0  0  0  0
   -9.3412    2.7019   10.1161 C   0  0  0  0  0  0  0  0  0  0  0  0
  -10.8303    2.5465    9.8675 C   0  0  0  0  0  0  0  0  0  0  0  0
   -8.7898    1.6801   11.0853 C   0  0  0  0  0  0  0  0  0  0  0  0
   -9.5284    1.7760   12.3976 C   0  0  0  0  0  0  0  0  0  0  0  0
   -9.4011    2.8638   13.2205 C   0  0  0  0  0  0  0  0  0  0  0  0
  -10.0906    2.9267   14.4076 C   0  0  0  0  0  0  0  0  0  0  0  0
  -10.9202    1.9090   14.8002 C   0  0  0  0  0  0  0  0  0  0  0  0
  -11.0654    0.8055   13.9921 C   0  0  0  0  0  0  0  0  0  0  0  0
  -10.3692    0.7595   12.8098 C   0  0  0  0  0  0  0  0  0  0  0  0
   -7.3394    1.7466   11.2865 C   0  0  0  0  0  0  0  0  0  0  0  0
   -6.9115    1.5825   12.4939 O   0  0  0  0  0  0  0  0  0  0  0  0
   -6.3511    1.9681   10.3149 N   0  0  0  0  0  0  0  0  0  0  0  0
   -5.1475    2.6925   10.6634 C   0  0  0  0  0  0  0  0  0  0  0  0
   -3.9745    1.8463   10.3043 C   0  0  0  0  0  0  0  0  0  0  0  0
   -3.9538    1.5345    8.8380 C   0  0  0  0  0  0  0  0  0  0  0  0
   -5.2432    1.1206    8.2575 C   0  0  0  0  0  0  0  0  0  0  0  0
   -6.4901    1.4822    8.9871 C   0  0  0  0  0  0  0  0  0  0  0  0
   -3.4718    2.6754    8.1523 O   0  0  0  0  0  0  0  0  0  0  0  0
   -2.7512    2.2799    7.0362 C   0  0  0  0  0  0  0  0  0  0  0  0
   -2.3792    2.9340    5.8542 C   0  0  0  0  0  0  0  0  0  0  0  0
   -1.6418    2.2741    4.8924 C   0  0  0  0  0  0  0  0  0  0  0  0
   -1.2948    0.9577    5.1499 C   0  0  0  0  0  0  0  0  0  0  0  0
   -1.6530    0.3093    6.3012 C   0  0  0  0  0  0  0  0  0  0  0  0
   -2.3887    0.9686    7.2600 C   0  0  0  0  0  0  0  0  0  0  0  0
   -2.9063    0.6038    8.5191 O   0  0  0  0  0  0  0  0  0  0  0  0
  1  2  1  0
  2  3  1  0
  2  4  1  0
  4  5  1  0
  5  6  2  0
  6  7  1  0
  7  8  2  0
  8  9  1  0
  9 10  2  0
  4 11  1  0
 11 12  2  0
 11 13  1  0
 13 14  1  0
 14 15  1  0
 15 16  1  0
 16 17  1  0
 17 18  1  0
 16 19  1  0
 19 20  1  0
 20 21  2  0
 21 22  1  0
 22 23  2  0
 23 24  1  0
 24 25  2  0
 25 26  1  0
 10  5  1  0
 18 13  1  0
 26 16  1  0
 25 20  1  0
M  END
$$$$
