
     RDKit          3D

 26 29  0  0  0  0  0  0  0  0999 V2000
   -5.9509    0.0210   13.9139 C   0  0  0  0  0  0  0  0  0  0  0  0
   -6.9851    0.3610   14.9986 C   0  0  0  0  0  0  0  0  0  0  0  0
   -6.2460    1.2224   16.0060 C   0  0  0  0  0  0  0  0  0  0  0  0
   -8.1753    1.0585   14.3787 C   0  0  0  0  0  0  0  0  0  0  0  0
   -9.1360    1.4816   15.4627 C   0  0  0  0  0  0  0  0  0  0  0  0
   -9.5267    2.7860   15.6131 C   0  0  0  0  0  0  0  0  0  0  0  0
  -10.4076    3.1416   16.6061 C   0  0  0  0  0  0  0  0  0  0  0  0
  -10.9175    2.2074   17.4693 C   0  0  0  0  0  0  0  0  0  0  0  0
  -10.5411    0.8908   17.3398 C   0  0  0  0  0  0  0  0  0  0  0  0
   -9.6603    0.5534   16.3423 C   0  0  0  0  0  0  0  0  0  0  0  0
   -8.8591    0.2915   13.3333 C   0  0  0  0  0  0  0  0  0  0  0  0
   -8.9832   -0.9786   13.5309 O   0  0  0  0  0  0  0  0  0  0  0  0
   -9.4010    0.7770   12.1331 N   0  0  0  0  0  0  0  0  0  0  0  0
   -9.9000   -0.1505   11.1405 C   0  0  0  0  0  0  0  0  0  0  0  0
  -11.3090    0.2185   10.8255 C   0  0  0  0  0  0  0  0  0  0  0  0
  -11.4010    1.6139   10.2849 C   0  0  0  0  0  0  0  0  0  0  0  0
  -10.6205    2.6303   11.0120 C   0  0  0  0  0  0  0  0  0  0  0  0
   -9.4911    2.1696   11.8665 C   0  0  0  0  0  0  0  0  0  0  0  0
  -10.9954    1.5880    8.9289 O   0  0  0  0  0  0  0  0  0  0  0  0
  -11.7086    2.5344    8.2098 C   0  0  0  0  0  0  0  0  0  0  0  0
  -11.4848    3.1759    6.9843 C   0  0  0  0  0  0  0  0  0  0  0  0
  -12.3906    4.0987    6.5026 C   0  0  0  0  0  0  0  0  0  0  0  0
  -13.5109    4.3536    7.2771 C   0  0  0  0  0  0  0  0  0  0  0  0
  -13.7392    3.7326    8.4755 C   0  0  0  0  0  0  0  0  0  0  0  0
  -12.8348    2.8122    8.9552 C   0  0  0  0  0  0  0  0  0  0  0  0
  -12.7700    2.0173   10.1172 O   0  0  0  0  0  0  0  0  0  0  0  0
  1  2  1  0
  2  3  1  0
  2  4  1  0
  4  5  1  0
  5  6  2  0
  6  7  1  0
  7  8  2  0
  8  9  1  0
  9 10  2  0
  4 11  1  0
 11 12  2  0
 11 13  1  0
 13 14  1  0
 14 15  1  0
 15 16  1  0
 16 17  1  0
 17 18  1  0
 16 19  1  0
 19 20  1  0
 20 21  2  0
 21 22  1  0
 22 23  2  0
 23 24  1  0
 24 25  2  0
 25 26  1  0
 10  5  1  0
 18 13  1  0
 26 16  1  0
 25 20  1  0
M  END
$$$$
