
     RDKit          3D

 26 29  0  0  0  0  0  0  0  0999 V2000
   -4.5248    2.6411    8.3717 C   0  0  0  0  0  0  0  0  0  0  0  0
   -3.1470    2.2405    8.9221 C   0  0  0  0  0  0  0  0  0  0  0  0
   -3.4282    1.5057   10.2200 C   0  0  0  0  0  0  0  0  0  0  0  0
   -2.4098    1.3953    7.9074 C   0  0  0  0  0  0  0  0  0  0  0  0
   -1.1426    0.8547    8.5228 C   0  0  0  0  0  0  0  0  0  0  0  0
   -0.0354    1.6407    8.7048 C   0  0  0  0  0  0  0  0  0  0  0  0
    1.1035    1.1229    9.2734 C   0  0  0  0  0  0  0  0  0  0  0  0
    1.1642   -0.1868    9.6721 C   0  0  0  0  0  0  0  0  0  0  0  0
    0.0662   -0.9972    9.5004 C   0  0  0  0  0  0  0  0  0  0  0  0
   -1.0630   -0.4633    8.9308 C   0  0  0  0  0  0  0  0  0  0  0  0
   -2.1366    2.0668    6.6334 C   0  0  0  0  0  0  0  0  0  0  0  0
   -2.2949    3.3481    6.6055 O   0  0  0  0  0  0  0  0  0  0  0  0
   -1.7186    1.4784    5.4296 N   0  0  0  0  0  0  0  0  0  0  0  0
   -1.5318    0.0452    5.3547 C   0  0  0  0  0  0  0  0  0  0  0  0
   -2.3542   -0.4729    4.2251 C   0  0  0  0  0  0  0  0  0  0  0  0
   -1.9445    0.1452    2.9221 C   0  0  0  0  0  0  0  0  0  0  0  0
   -1.7381    1.6039    2.9472 C   0  0  0  0  0  0  0  0  0  0  0  0
   -1.4862    2.2549    4.2627 C   0  0  0  0  0  0  0  0  0  0  0  0
   -0.7578   -0.4921    2.4866 O   0  0  0  0  0  0  0  0  0  0  0  0
   -0.7403   -0.5513    1.1019 C   0  0  0  0  0  0  0  0  0  0  0  0
    0.2851   -0.7243    0.1627 C   0  0  0  0  0  0  0  0  0  0  0  0
    0.0005   -0.7427   -1.1875 C   0  0  0  0  0  0  0  0  0  0  0  0
   -1.3246   -0.5846   -1.5599 C   0  0  0  0  0  0  0  0  0  0  0  0
   -2.3339   -0.4149   -0.6507 C   0  0  0  0  0  0  0  0  0  0  0  0
   -2.0490   -0.3967    0.6960 C   0  0  0  0  0  0  0  0  0  0  0  0
   -2.8296   -0.2463    1.8598 O   0  0  0  0  0  0  0  0  0  0  0  0
  1  2  1  0
  2  3  1  0
  2  4  1  0
  4  5  1  0
  5  6  2  0
  6  7  1  0
  7  8  2  0
  8  9  1  0
  9 10  2  0
  4 11  1  0
 11 12  2  0
 11 13  1  0
 13 14  1  0
 14 15  1  0
 15 16  1  0
 16 17  1  0
 17 18  1  0
 16 19  1  0
 19 20  1  0
 20 21  2  0
 21 22  1  0
 22 23  2  0
 23 24  1  0
 24 25  2  0
 25 26  1  0
 10  5  1  0
 18 13  1  0
 26 16  1  0
 25 20  1  0
M  END
$$$$
