
     RDKit          3D

 26 29  0  0  0  0  0  0  0  0999 V2000
    2.7223    0.6055   10.4179 C   0  0  0  0  0  0  0  0  0  0  0  0
    2.2199   -0.0892    9.1425 C   0  0  0  0  0  0  0  0  0  0  0  0
    3.0896   -1.3229    8.9847 C   0  0  0  0  0  0  0  0  0  0  0  0
    0.7480   -0.4115    9.2739 C   0  0  0  0  0  0  0  0  0  0  0  0
    0.5568   -1.4958   10.3057 C   0  0  0  0  0  0  0  0  0  0  0  0
    0.0090   -1.2356   11.5341 C   0  0  0  0  0  0  0  0  0  0  0  0
   -0.1586   -2.2442   12.4523 C   0  0  0  0  0  0  0  0  0  0  0  0
    0.2153   -3.5315   12.1675 C   0  0  0  0  0  0  0  0  0  0  0  0
    0.7679   -3.8192   10.9412 C   0  0  0  0  0  0  0  0  0  0  0  0
    0.9279   -2.7995   10.0361 C   0  0  0  0  0  0  0  0  0  0  0  0
    0.0809   -0.7537    8.0144 C   0  0  0  0  0  0  0  0  0  0  0  0
    0.4184   -1.8714    7.4624 O   0  0  0  0  0  0  0  0  0  0  0  0
   -0.8905   -0.0059    7.3310 N   0  0  0  0  0  0  0  0  0  0  0  0
   -2.0728    0.4498    8.0304 C   0  0  0  0  0  0  0  0  0  0  0  0
   -2.1749    1.9266    7.8588 C   0  0  0  0  0  0  0  0  0  0  0  0
   -2.2839    2.3027    6.4116 C   0  0  0  0  0  0  0  0  0  0  0  0
   -1.3483    1.6160    5.5038 C   0  0  0  0  0  0  0  0  0  0  0  0
   -0.7388    0.3362    5.9604 C   0  0  0  0  0  0  0  0  0  0  0  0
   -3.6138    2.0579    5.9924 O   0  0  0  0  0  0  0  0  0  0  0  0
   -3.9816    2.9917    5.0364 C   0  0  0  0  0  0  0  0  0  0  0  0
   -4.9828    3.0168    4.0563 C   0  0  0  0  0  0  0  0  0  0  0  0
   -5.1180    4.1083    3.2229 C   0  0  0  0  0  0  0  0  0  0  0  0
   -4.2308    5.1575    3.4010 C   0  0  0  0  0  0  0  0  0  0  0  0
   -3.2493    5.1433    4.3552 C   0  0  0  0  0  0  0  0  0  0  0  0
   -3.1153    4.0539    5.1861 C   0  0  0  0  0  0  0  0  0  0  0  0
   -2.2379    3.7287    6.2400 O   0  0  0  0  0  0  0  0  0  0  0  0
  1  2  1  0
  2  3  1  0
  2  4  1  0
  4  5  1  0
  5  6  2  0
  6  7  1  0
  7  8  2  0
  8  9  1  0
  9 10  2  0
  4 11  1  0
 11 12  2  0
 11 13  1  0
 13 14  1  0
 14 15  1  0
 15 16  1  0
 16 17  1  0
 17 18  1  0
 16 19  1  0
 19 20  1  0
 20 21  2  0
 21 22  1  0
 22 23  2  0
 23 24  1  0
 24 25  2  0
 25 26  1  0
 10  5  1  0
 18 13  1  0
 26 16  1  0
 25 20  1  0
M  END
$$$$
