
     RDKit          3D

 26 29  0  0  0  0  0  0  0  0999 V2000
   -5.3687    3.1361    7.3414 C   0  0  0  0  0  0  0  0  0  0  0  0
   -4.0052    2.5388    7.7230 C   0  0  0  0  0  0  0  0  0  0  0  0
   -2.9898    3.6272    7.4266 C   0  0  0  0  0  0  0  0  0  0  0  0
   -4.0144    2.1128    9.1742 C   0  0  0  0  0  0  0  0  0  0  0  0
   -2.6955    1.4672    9.5213 C   0  0  0  0  0  0  0  0  0  0  0  0
   -2.2776    0.3092    8.9201 C   0  0  0  0  0  0  0  0  0  0  0  0
   -1.0686   -0.2535    9.2519 C   0  0  0  0  0  0  0  0  0  0  0  0
   -0.2511    0.3238   10.1882 C   0  0  0  0  0  0  0  0  0  0  0  0
   -0.6475    1.4866   10.8066 C   0  0  0  0  0  0  0  0  0  0  0  0
   -1.8582    2.0349   10.4629 C   0  0  0  0  0  0  0  0  0  0  0  0
   -5.1412    1.2557    9.5541 C   0  0  0  0  0  0  0  0  0  0  0  0
   -5.0617    0.0099    9.2233 O   0  0  0  0  0  0  0  0  0  0  0  0
   -6.3061    1.6301   10.2416 N   0  0  0  0  0  0  0  0  0  0  0  0
   -6.5193    3.0170   10.5961 C   0  0  0  0  0  0  0  0  0  0  0  0
   -7.8398    3.4395   10.0497 C   0  0  0  0  0  0  0  0  0  0  0  0
   -8.9550    2.6108   10.6130 C   0  0  0  0  0  0  0  0  0  0  0  0
   -8.7123    1.1579   10.6489 C   0  0  0  0  0  0  0  0  0  0  0  0
   -7.3031    0.6798   10.5899 C   0  0  0  0  0  0  0  0  0  0  0  0
   -9.2311    3.0758   11.9214 O   0  0  0  0  0  0  0  0  0  0  0  0
  -10.5838    2.9373   12.1906 C   0  0  0  0  0  0  0  0  0  0  0  0
  -11.3243    2.8872   13.3791 C   0  0  0  0  0  0  0  0  0  0  0  0
  -12.6958    2.7394   13.3424 C   0  0  0  0  0  0  0  0  0  0  0  0
  -13.2917    2.6450   12.0951 C   0  0  0  0  0  0  0  0  0  0  0  0
  -12.5777    2.6928   10.9281 C   0  0  0  0  0  0  0  0  0  0  0  0
  -11.2095    2.8402   10.9658 C   0  0  0  0  0  0  0  0  0  0  0  0
  -10.2063    2.9232    9.9794 O   0  0  0  0  0  0  0  0  0  0  0  0
  1  2  1  0
  2  3  1  0
  2  4  1  0
  4  5  1  0
  5  6  2  0
  6  7  1  0
  7  8  2  0
  8  9  1  0
  9 10  2  0
  4 11  1  0
 11 12  2  0
 11 13  1  0
 13 14  1  0
 14 15  1  0
 15 16  1  0
 16 17  1  0
 17 18  1  0
 16 19  1  0
 19 20  1  0
 20 21  2  0
 21 22  1  0
 22 23  2  0
 23 24  1  0
 24 25  2  0
 25 26  1  0
 10  5  1  0
 18 13  1  0
 26 16  1  0
 25 20  1  0
M  END
$$$$
