
     RDKit          3D

 26 29  0  0  0  0  0  0  0  0999 V2000
   -8.1601    3.7044    9.2822 C   0  0  0  0  0  0  0  0  0  0  0  0
   -8.3450    3.2126   10.7264 C   0  0  0  0  0  0  0  0  0  0  0  0
   -9.7729    3.5704   11.0957 C   0  0  0  0  0  0  0  0  0  0  0  0
   -8.0631    1.7289   10.8082 C   0  0  0  0  0  0  0  0  0  0  0  0
   -8.7772    1.1423   12.0010 C   0  0  0  0  0  0  0  0  0  0  0  0
   -9.9463    0.4403   11.8698 C   0  0  0  0  0  0  0  0  0  0  0  0
  -10.5720   -0.0878   12.9735 C   0  0  0  0  0  0  0  0  0  0  0  0
  -10.0478    0.0718   14.2296 C   0  0  0  0  0  0  0  0  0  0  0  0
   -8.8750    0.7727   14.3885 C   0  0  0  0  0  0  0  0  0  0  0  0
   -8.2635    1.2932   13.2751 C   0  0  0  0  0  0  0  0  0  0  0  0
   -6.6407    1.3748   10.8143 C   0  0  0  0  0  0  0  0  0  0  0  0
   -6.2478    0.5607   11.7365 O   0  0  0  0  0  0  0  0  0  0  0  0
   -5.6459    1.8179    9.9289 N   0  0  0  0  0  0  0  0  0  0  0  0
   -4.2498    1.6311   10.2616 C   0  0  0  0  0  0  0  0  0  0  0  0
   -3.5971    0.9014    9.1380 C   0  0  0  0  0  0  0  0  0  0  0  0
   -3.6983    1.6701    7.8549 C   0  0  0  0  0  0  0  0  0  0  0  0
   -5.0225    2.2456    7.5610 C   0  0  0  0  0  0  0  0  0  0  0  0
   -5.9717    2.4371    8.6924 C   0  0  0  0  0  0  0  0  0  0  0  0
   -2.7305    2.7029    7.8833 O   0  0  0  0  0  0  0  0  0  0  0  0
   -2.2565    2.9345    6.6014 C   0  0  0  0  0  0  0  0  0  0  0  0
   -1.6034    4.0199    6.0024 C   0  0  0  0  0  0  0  0  0  0  0  0
   -1.2398    3.9694    4.6722 C   0  0  0  0  0  0  0  0  0  0  0  0
   -1.5474    2.8136    3.9728 C   0  0  0  0  0  0  0  0  0  0  0  0
   -2.1851    1.7477    4.5482 C   0  0  0  0  0  0  0  0  0  0  0  0
   -2.5474    1.7990    5.8753 C   0  0  0  0  0  0  0  0  0  0  0  0
   -3.1966    0.9030    6.7481 O   0  0  0  0  0  0  0  0  0  0  0  0
  1  2  1  0
  2  3  1  0
  2  4  1  0
  4  5  1  0
  5  6  2  0
  6  7  1  0
  7  8  2  0
  8  9  1  0
  9 10  2  0
  4 11  1  0
 11 12  2  0
 11 13  1  0
 13 14  1  0
 14 15  1  0
 15 16  1  0
 16 17  1  0
 17 18  1  0
 16 19  1  0
 19 20  1  0
 20 21  2  0
 21 22  1  0
 22 23  2  0
 23 24  1  0
 24 25  2  0
 25 26  1  0
 10  5  1  0
 18 13  1  0
 26 16  1  0
 25 20  1  0
M  END
$$$$
