
     RDKit          3D

 26 29  0  0  0  0  0  0  0  0999 V2000
   -8.2771   -1.4354   11.6678 C   0  0  0  0  0  0  0  0  0  0  0  0
   -8.5649   -0.1296   10.9103 C   0  0  0  0  0  0  0  0  0  0  0  0
   -9.9737    0.2682   11.3108 C   0  0  0  0  0  0  0  0  0  0  0  0
   -7.5286    0.9136   11.2644 C   0  0  0  0  0  0  0  0  0  0  0  0
   -8.0202    2.2781   10.8481 C   0  0  0  0  0  0  0  0  0  0  0  0
   -7.7987    3.3911   11.6158 C   0  0  0  0  0  0  0  0  0  0  0  0
   -8.2532    4.6224   11.2088 C   0  0  0  0  0  0  0  0  0  0  0  0
   -8.9370    4.7718   10.0307 C   0  0  0  0  0  0  0  0  0  0  0  0
   -9.1727    3.6701    9.2417 C   0  0  0  0  0  0  0  0  0  0  0  0
   -8.7115    2.4478    9.6635 C   0  0  0  0  0  0  0  0  0  0  0  0
   -6.1872    0.6488   10.7360 C   0  0  0  0  0  0  0  0  0  0  0  0
   -5.6070   -0.4329   11.1374 O   0  0  0  0  0  0  0  0  0  0  0  0
   -5.4519    1.4367    9.8370 N   0  0  0  0  0  0  0  0  0  0  0  0
   -4.1302    1.9013   10.2002 C   0  0  0  0  0  0  0  0  0  0  0  0
   -3.1781    1.4748    9.1359 C   0  0  0  0  0  0  0  0  0  0  0  0
   -3.5532    2.0513    7.8038 C   0  0  0  0  0  0  0  0  0  0  0  0
   -4.9823    1.9687    7.4547 C   0  0  0  0  0  0  0  0  0  0  0  0
   -5.9651    1.7828    8.5581 C   0  0  0  0  0  0  0  0  0  0  0  0
   -3.1382    3.4045    7.7773 O   0  0  0  0  0  0  0  0  0  0  0  0
   -2.7615    3.7525    6.4895 C   0  0  0  0  0  0  0  0  0  0  0  0
   -2.6263    4.9811    5.8293 C   0  0  0  0  0  0  0  0  0  0  0  0
   -2.2231    5.0252    4.5104 C   0  0  0  0  0  0  0  0  0  0  0  0
   -1.9638    3.8167    3.8844 C   0  0  0  0  0  0  0  0  0  0  0  0
   -2.0928    2.6111    4.5199 C   0  0  0  0  0  0  0  0  0  0  0  0
   -2.4951    2.5682    5.8358 C   0  0  0  0  0  0  0  0  0  0  0  0
   -2.7210    1.5256    6.7568 O   0  0  0  0  0  0  0  0  0  0  0  0
  1  2  1  0
  2  3  1  0
  2  4  1  0
  4  5  1  0
  5  6  2  0
  6  7  1  0
  7  8  2  0
  8  9  1  0
  9 10  2  0
  4 11  1  0
 11 12  2  0
 11 13  1  0
 13 14  1  0
 14 15  1  0
 15 16  1  0
 16 17  1  0
 17 18  1  0
 16 19  1  0
 19 20  1  0
 20 21  2  0
 21 22  1  0
 22 23  2  0
 23 24  1  0
 24 25  2  0
 25 26  1  0
 10  5  1  0
 18 13  1  0
 26 16  1  0
 25 20  1  0
M  END
$$$$
