
     RDKit          3D

 26 29  0  0  0  0  0  0  0  0999 V2000
   -7.1532   -0.2766   11.9102 C   0  0  0  0  0  0  0  0  0  0  0  0
   -8.4772    0.2019   11.2938 C   0  0  0  0  0  0  0  0  0  0  0  0
   -9.5665   -0.3648   12.1859 C   0  0  0  0  0  0  0  0  0  0  0  0
   -8.4966    1.7122   11.2170 C   0  0  0  0  0  0  0  0  0  0  0  0
   -9.8652    2.2215   11.5971 C   0  0  0  0  0  0  0  0  0  0  0  0
  -10.9179    2.1872   10.7209 C   0  0  0  0  0  0  0  0  0  0  0  0
  -12.1551    2.6529   11.0964 C   0  0  0  0  0  0  0  0  0  0  0  0
  -12.3702    3.1620   12.3504 C   0  0  0  0  0  0  0  0  0  0  0  0
  -11.3298    3.2079   13.2489 C   0  0  0  0  0  0  0  0  0  0  0  0
  -10.1007    2.7384   12.8570 C   0  0  0  0  0  0  0  0  0  0  0  0
   -8.0626    2.2660    9.9310 C   0  0  0  0  0  0  0  0  0  0  0  0
   -8.9726    2.8140    9.1968 O   0  0  0  0  0  0  0  0  0  0  0  0
   -6.7642    2.2729    9.3981 N   0  0  0  0  0  0  0  0  0  0  0  0
   -5.6595    1.7675   10.1849 C   0  0  0  0  0  0  0  0  0  0  0  0
   -4.9633    0.7174    9.3890 C   0  0  0  0  0  0  0  0  0  0  0  0
   -4.4362    1.2690    8.0985 C   0  0  0  0  0  0  0  0  0  0  0  0
   -5.3669    2.1296    7.3473 C   0  0  0  0  0  0  0  0  0  0  0  0
   -6.5002    2.7515    8.0867 C   0  0  0  0  0  0  0  0  0  0  0  0
   -3.2500    1.9889    8.3796 O   0  0  0  0  0  0  0  0  0  0  0  0
   -2.3703    1.8740    7.3145 C   0  0  0  0  0  0  0  0  0  0  0  0
   -1.2662    2.6294    6.8975 C   0  0  0  0  0  0  0  0  0  0  0  0
   -0.5594    2.2695    5.7684 C   0  0  0  0  0  0  0  0  0  0  0  0
   -0.9884    1.1453    5.0815 C   0  0  0  0  0  0  0  0  0  0  0  0
   -2.0655    0.4004    5.4802 C   0  0  0  0  0  0  0  0  0  0  0  0
   -2.7701    0.7603    6.6068 C   0  0  0  0  0  0  0  0  0  0  0  0
   -3.8930    0.2273    7.2710 O   0  0  0  0  0  0  0  0  0  0  0  0
  1  2  1  0
  2  3  1  0
  2  4  1  0
  4  5  1  0
  5  6  2  0
  6  7  1  0
  7  8  2  0
  8  9  1  0
  9 10  2  0
  4 11  1  0
 11 12  2  0
 11 13  1  0
 13 14  1  0
 14 15  1  0
 15 16  1  0
 16 17  1  0
 17 18  1  0
 16 19  1  0
 19 20  1  0
 20 21  2  0
 21 22  1  0
 22 23  2  0
 23 24  1  0
 24 25  2  0
 25 26  1  0
 10  5  1  0
 18 13  1  0
 26 16  1  0
 25 20  1  0
M  END
$$$$
