
     RDKit          3D

 26 29  0  0  0  0  0  0  0  0999 V2000
   -3.2834    2.8834    6.9170 C   0  0  0  0  0  0  0  0  0  0  0  0
   -3.7618    1.5020    7.3912 C   0  0  0  0  0  0  0  0  0  0  0  0
   -2.6551    0.5371    7.0071 C   0  0  0  0  0  0  0  0  0  0  0  0
   -4.0362    1.5314    8.8782 C   0  0  0  0  0  0  0  0  0  0  0  0
   -2.7752    1.1900    9.6332 C   0  0  0  0  0  0  0  0  0  0  0  0
   -2.0960    2.1270   10.3666 C   0  0  0  0  0  0  0  0  0  0  0  0
   -0.9530    1.7862   11.0490 C   0  0  0  0  0  0  0  0  0  0  0  0
   -0.4623    0.5070   11.0157 C   0  0  0  0  0  0  0  0  0  0  0  0
   -1.1253   -0.4525   10.2866 C   0  0  0  0  0  0  0  0  0  0  0  0
   -2.2656   -0.0945    9.6112 C   0  0  0  0  0  0  0  0  0  0  0  0
   -5.1575    0.6924    9.3111 C   0  0  0  0  0  0  0  0  0  0  0  0
   -5.1421   -0.5413    8.9295 O   0  0  0  0  0  0  0  0  0  0  0  0
   -6.2552    1.0726   10.0987 N   0  0  0  0  0  0  0  0  0  0  0  0
   -6.1643    2.2438   10.9441 C   0  0  0  0  0  0  0  0  0  0  0  0
   -7.2965    3.1515   10.6051 C   0  0  0  0  0  0  0  0  0  0  0  0
   -8.6195    2.4834   10.8309 C   0  0  0  0  0  0  0  0  0  0  0  0
   -8.7305    1.1046   10.3234 C   0  0  0  0  0  0  0  0  0  0  0  0
   -7.4743    0.3431   10.0787 C   0  0  0  0  0  0  0  0  0  0  0  0
   -8.8882    2.4980   12.2207 O   0  0  0  0  0  0  0  0  0  0  0  0
  -10.2532    2.6156   12.4315 C   0  0  0  0  0  0  0  0  0  0  0  0
  -11.0829    2.3271   13.5233 C   0  0  0  0  0  0  0  0  0  0  0  0
  -12.4423    2.5514   13.4466 C   0  0  0  0  0  0  0  0  0  0  0  0
  -12.9354    3.0663   12.2585 C   0  0  0  0  0  0  0  0  0  0  0  0
  -12.1338    3.3515   11.1861 C   0  0  0  0  0  0  0  0  0  0  0  0
  -10.7777    3.1273   11.2636 C   0  0  0  0  0  0  0  0  0  0  0  0
   -9.7033    3.3066   10.3694 O   0  0  0  0  0  0  0  0  0  0  0  0
  1  2  1  0
  2  3  1  0
  2  4  1  0
  4  5  1  0
  5  6  2  0
  6  7  1  0
  7  8  2  0
  8  9  1  0
  9 10  2  0
  4 11  1  0
 11 12  2  0
 11 13  1  0
 13 14  1  0
 14 15  1  0
 15 16  1  0
 16 17  1  0
 17 18  1  0
 16 19  1  0
 19 20  1  0
 20 21  2  0
 21 22  1  0
 22 23  2  0
 23 24  1  0
 24 25  2  0
 25 26  1  0
 10  5  1  0
 18 13  1  0
 26 16  1  0
 25 20  1  0
M  END
$$$$
