
     RDKit          3D

 26 29  0  0  0  0  0  0  0  0999 V2000
  -10.8859    2.1415    7.5744 C   0  0  0  0  0  0  0  0  0  0  0  0
  -11.0637    2.4220    9.0749 C   0  0  0  0  0  0  0  0  0  0  0  0
  -12.3634    1.7409    9.4623 C   0  0  0  0  0  0  0  0  0  0  0  0
   -9.8683    1.9044    9.8436 C   0  0  0  0  0  0  0  0  0  0  0  0
  -10.1755    1.9081   11.3209 C   0  0  0  0  0  0  0  0  0  0  0  0
  -10.5621    0.7718   11.9813 C   0  0  0  0  0  0  0  0  0  0  0  0
  -10.8299    0.8035   13.3287 C   0  0  0  0  0  0  0  0  0  0  0  0
  -10.7188    1.9656   14.0464 C   0  0  0  0  0  0  0  0  0  0  0  0
  -10.3326    3.1205   13.4070 C   0  0  0  0  0  0  0  0  0  0  0  0
  -10.0689    3.0706   12.0607 C   0  0  0  0  0  0  0  0  0  0  0  0
   -8.6099    2.6011    9.5613 C   0  0  0  0  0  0  0  0  0  0  0  0
   -8.6918    3.7007    8.8891 O   0  0  0  0  0  0  0  0  0  0  0  0
   -7.3150    2.2131    9.9389 N   0  0  0  0  0  0  0  0  0  0  0  0
   -7.1158    0.9767   10.6642 C   0  0  0  0  0  0  0  0  0  0  0  0
   -6.1246    0.1527    9.9162 C   0  0  0  0  0  0  0  0  0  0  0  0
   -4.8109    0.8631    9.7853 C   0  0  0  0  0  0  0  0  0  0  0  0
   -4.8910    2.2810    9.3925 C   0  0  0  0  0  0  0  0  0  0  0  0
   -6.1773    2.9988    9.6120 C   0  0  0  0  0  0  0  0  0  0  0  0
   -4.1263    0.7531   11.0194 O   0  0  0  0  0  0  0  0  0  0  0  0
   -2.7607    0.6842   10.7917 C   0  0  0  0  0  0  0  0  0  0  0  0
   -1.6409    0.9257   11.5987 C   0  0  0  0  0  0  0  0  0  0  0  0
   -0.3671    0.7727   11.0906 C   0  0  0  0  0  0  0  0  0  0  0  0
   -0.2539    0.3759    9.7680 C   0  0  0  0  0  0  0  0  0  0  0  0
   -1.3410    0.1374    8.9710 C   0  0  0  0  0  0  0  0  0  0  0  0
   -2.6114    0.2904    9.4788 C   0  0  0  0  0  0  0  0  0  0  0  0
   -3.9053    0.1307    8.9435 O   0  0  0  0  0  0  0  0  0  0  0  0
  1  2  1  0
  2  3  1  0
  2  4  1  0
  4  5  1  0
  5  6  2  0
  6  7  1  0
  7  8  2  0
  8  9  1  0
  9 10  2  0
  4 11  1  0
 11 12  2  0
 11 13  1  0
 13 14  1  0
 14 15  1  0
 15 16  1  0
 16 17  1  0
 17 18  1  0
 16 19  1  0
 19 20  1  0
 20 21  2  0
 21 22  1  0
 22 23  2  0
 23 24  1  0
 24 25  2  0
 25 26  1  0
 10  5  1  0
 18 13  1  0
 26 16  1  0
 25 20  1  0
M  END
$$$$
