
     RDKit          3D

 26 29  0  0  0  0  0  0  0  0999 V2000
   -2.8088   -0.1985    3.5782 C   0  0  0  0  0  0  0  0  0  0  0  0
   -1.4205    0.4599    3.6106 C   0  0  0  0  0  0  0  0  0  0  0  0
   -1.4257    1.4702    2.4781 C   0  0  0  0  0  0  0  0  0  0  0  0
   -1.1758    1.0859    4.9655 C   0  0  0  0  0  0  0  0  0  0  0  0
   -0.5217    0.0784    5.8787 C   0  0  0  0  0  0  0  0  0  0  0  0
   -1.2171   -0.9782    6.4049 C   0  0  0  0  0  0  0  0  0  0  0  0
   -0.5938   -1.8839    7.2294 C   0  0  0  0  0  0  0  0  0  0  0  0
    0.7332   -1.7569    7.5473 C   0  0  0  0  0  0  0  0  0  0  0  0
    1.4539   -0.7048    7.0322 C   0  0  0  0  0  0  0  0  0  0  0  0
    0.8153    0.1904    6.2102 C   0  0  0  0  0  0  0  0  0  0  0  0
   -2.3626    1.6769    5.5908 C   0  0  0  0  0  0  0  0  0  0  0  0
   -3.4510    0.9835    5.5441 O   0  0  0  0  0  0  0  0  0  0  0  0
   -2.4580    2.9170    6.2411 N   0  0  0  0  0  0  0  0  0  0  0  0
   -3.6531    3.2498    6.9865 C   0  0  0  0  0  0  0  0  0  0  0  0
   -3.2493    3.6191    8.3727 C   0  0  0  0  0  0  0  0  0  0  0  0
   -2.3230    4.7979    8.3766 C   0  0  0  0  0  0  0  0  0  0  0  0
   -1.2358    4.7558    7.3830 C   0  0  0  0  0  0  0  0  0  0  0  0
   -1.3969    3.8611    6.2034 C   0  0  0  0  0  0  0  0  0  0  0  0
   -3.0973    5.9666    8.1799 O   0  0  0  0  0  0  0  0  0  0  0  0
   -2.5308    7.0247    8.8733 C   0  0  0  0  0  0  0  0  0  0  0  0
   -2.6424    8.4166    8.7567 C   0  0  0  0  0  0  0  0  0  0  0  0
   -1.9426    9.2477    9.6074 C   0  0  0  0  0  0  0  0  0  0  0  0
   -1.1397    8.6476   10.5639 C   0  0  0  0  0  0  0  0  0  0  0  0
   -1.0234    7.2891   10.6864 C   0  0  0  0  0  0  0  0  0  0  0  0
   -1.7220    6.4608    9.8372 C   0  0  0  0  0  0  0  0  0  0  0  0
   -1.8231    5.0621    9.6978 O   0  0  0  0  0  0  0  0  0  0  0  0
  1  2  1  0
  2  3  1  0
  2  4  1  0
  4  5  1  0
  5  6  2  0
  6  7  1  0
  7  8  2  0
  8  9  1  0
  9 10  2  0
  4 11  1  0
 11 12  2  0
 11 13  1  0
 13 14  1  0
 14 15  1  0
 15 16  1  0
 16 17  1  0
 17 18  1  0
 16 19  1  0
 19 20  1  0
 20 21  2  0
 21 22  1  0
 22 23  2  0
 23 24  1  0
 24 25  2  0
 25 26  1  0
 10  5  1  0
 18 13  1  0
 26 16  1  0
 25 20  1  0
M  END
$$$$
