
     RDKit          3D

 26 29  0  0  0  0  0  0  0  0999 V2000
   -4.0456   -0.5455   12.2775 C   0  0  0  0  0  0  0  0  0  0  0  0
   -5.5242   -0.1446   12.1557 C   0  0  0  0  0  0  0  0  0  0  0  0
   -5.8729    0.5196   13.4750 C   0  0  0  0  0  0  0  0  0  0  0  0
   -5.7176    0.7642   10.9624 C   0  0  0  0  0  0  0  0  0  0  0  0
   -7.1106    1.3438   10.9873 C   0  0  0  0  0  0  0  0  0  0  0  0
   -7.3313    2.6956   10.9565 C   0  0  0  0  0  0  0  0  0  0  0  0
   -8.6113    3.1952   10.9745 C   0  0  0  0  0  0  0  0  0  0  0  0
   -9.6974    2.3609   11.0236 C   0  0  0  0  0  0  0  0  0  0  0  0
   -9.5030    0.9996   11.0554 C   0  0  0  0  0  0  0  0  0  0  0  0
   -8.2176    0.5179   11.0368 C   0  0  0  0  0  0  0  0  0  0  0  0
   -5.4234    0.1452    9.6667 C   0  0  0  0  0  0  0  0  0  0  0  0
   -5.5711   -1.1352    9.5868 O   0  0  0  0  0  0  0  0  0  0  0  0
   -4.9978    0.7837    8.4915 N   0  0  0  0  0  0  0  0  0  0  0  0
   -4.8153    2.2193    8.4769 C   0  0  0  0  0  0  0  0  0  0  0  0
   -3.4292    2.5077    8.0116 C   0  0  0  0  0  0  0  0  0  0  0  0
   -3.1917    1.9676    6.6334 C   0  0  0  0  0  0  0  0  0  0  0  0
   -3.6742    0.5959    6.3959 C   0  0  0  0  0  0  0  0  0  0  0  0
   -4.7209    0.0524    7.3053 C   0  0  0  0  0  0  0  0  0  0  0  0
   -3.7974    2.8484    5.7053 O   0  0  0  0  0  0  0  0  0  0  0  0
   -3.0556    2.8759    4.5346 C   0  0  0  0  0  0  0  0  0  0  0  0
   -3.3543    3.2555    3.2193 C   0  0  0  0  0  0  0  0  0  0  0  0
   -2.3926    3.1751    2.2330 C   0  0  0  0  0  0  0  0  0  0  0  0
   -1.1411    2.7090    2.6022 C   0  0  0  0  0  0  0  0  0  0  0  0
   -0.8388    2.3355    3.8841 C   0  0  0  0  0  0  0  0  0  0  0  0
   -1.7990    2.4162    4.8673 C   0  0  0  0  0  0  0  0  0  0  0  0
   -1.8165    2.1201    6.2450 O   0  0  0  0  0  0  0  0  0  0  0  0
  1  2  1  0
  2  3  1  0
  2  4  1  0
  4  5  1  0
  5  6  2  0
  6  7  1  0
  7  8  2  0
  8  9  1  0
  9 10  2  0
  4 11  1  0
 11 12  2  0
 11 13  1  0
 13 14  1  0
 14 15  1  0
 15 16  1  0
 16 17  1  0
 17 18  1  0
 16 19  1  0
 19 20  1  0
 20 21  2  0
 21 22  1  0
 22 23  2  0
 23 24  1  0
 24 25  2  0
 25 26  1  0
 10  5  1  0
 18 13  1  0
 26 16  1  0
 25 20  1  0
M  END
$$$$
