
     RDKit          3D

 26 29  0  0  0  0  0  0  0  0999 V2000
   -6.9511    3.3197    7.3666 C   0  0  0  0  0  0  0  0  0  0  0  0
   -7.8062    3.2385    8.6409 C   0  0  0  0  0  0  0  0  0  0  0  0
   -9.2155    2.9395    8.1637 C   0  0  0  0  0  0  0  0  0  0  0  0
   -7.2544    2.1785    9.5680 C   0  0  0  0  0  0  0  0  0  0  0  0
   -8.3269    1.7441   10.5365 C   0  0  0  0  0  0  0  0  0  0  0  0
   -8.9437    0.5253   10.4325 C   0  0  0  0  0  0  0  0  0  0  0  0
   -9.9134    0.1537   11.3325 C   0  0  0  0  0  0  0  0  0  0  0  0
  -10.2893    0.9867   12.3537 C   0  0  0  0  0  0  0  0  0  0  0  0
   -9.6856    2.2160   12.4802 C   0  0  0  0  0  0  0  0  0  0  0  0
   -8.7188    2.5708   11.5724 C   0  0  0  0  0  0  0  0  0  0  0  0
   -6.0263    2.5591   10.2718 C   0  0  0  0  0  0  0  0  0  0  0  0
   -6.0282    3.7054   10.8667 O   0  0  0  0  0  0  0  0  0  0  0  0
   -4.8382    1.8196   10.3785 N   0  0  0  0  0  0  0  0  0  0  0  0
   -4.8698    0.3801   10.2319 C   0  0  0  0  0  0  0  0  0  0  0  0
   -3.8994   -0.0007    9.1669 C   0  0  0  0  0  0  0  0  0  0  0  0
   -2.5062    0.4274    9.5182 C   0  0  0  0  0  0  0  0  0  0  0  0
   -2.3754    1.7980   10.0430 C   0  0  0  0  0  0  0  0  0  0  0  0
   -3.5869    2.4505   10.6125 C   0  0  0  0  0  0  0  0  0  0  0  0
   -1.9886   -0.4912   10.4627 O   0  0  0  0  0  0  0  0  0  0  0  0
   -0.6229   -0.6353   10.2744 C   0  0  0  0  0  0  0  0  0  0  0  0
    0.4147   -1.0959   11.0958 C   0  0  0  0  0  0  0  0  0  0  0  0
    1.7132   -1.1285   10.6298 C   0  0  0  0  0  0  0  0  0  0  0  0
    1.9344   -0.6914    9.3337 C   0  0  0  0  0  0  0  0  0  0  0  0
    0.9281   -0.2396    8.5230 C   0  0  0  0  0  0  0  0  0  0  0  0
   -0.3669   -0.2074    8.9889 C   0  0  0  0  0  0  0  0  0  0  0  0
   -1.5987    0.1881    8.4299 O   0  0  0  0  0  0  0  0  0  0  0  0
  1  2  1  0
  2  3  1  0
  2  4  1  0
  4  5  1  0
  5  6  2  0
  6  7  1  0
  7  8  2  0
  8  9  1  0
  9 10  2  0
  4 11  1  0
 11 12  2  0
 11 13  1  0
 13 14  1  0
 14 15  1  0
 15 16  1  0
 16 17  1  0
 17 18  1  0
 16 19  1  0
 19 20  1  0
 20 21  2  0
 21 22  1  0
 22 23  2  0
 23 24  1  0
 24 25  2  0
 25 26  1  0
 10  5  1  0
 18 13  1  0
 26 16  1  0
 25 20  1  0
M  END
$$$$
