
     RDKit          3D

 26 29  0  0  0  0  0  0  0  0999 V2000
   -1.9970    2.6055    6.0081 C   0  0  0  0  0  0  0  0  0  0  0  0
   -1.7582    1.6292    7.1707 C   0  0  0  0  0  0  0  0  0  0  0  0
   -0.3294    1.8761    7.6190 C   0  0  0  0  0  0  0  0  0  0  0  0
   -2.7749    1.8682    8.2646 C   0  0  0  0  0  0  0  0  0  0  0  0
   -2.4646    0.9836    9.4470 C   0  0  0  0  0  0  0  0  0  0  0  0
   -2.5179   -0.3827    9.3609 C   0  0  0  0  0  0  0  0  0  0  0  0
   -2.2245   -1.1637   10.4528 C   0  0  0  0  0  0  0  0  0  0  0  0
   -1.8725   -0.6020   11.6521 C   0  0  0  0  0  0  0  0  0  0  0  0
   -1.8116    0.7675   11.7651 C   0  0  0  0  0  0  0  0  0  0  0  0
   -2.1078    1.5323   10.6642 C   0  0  0  0  0  0  0  0  0  0  0  0
   -4.1719    1.7228    7.8452 C   0  0  0  0  0  0  0  0  0  0  0  0
   -4.3771    1.3233    6.6344 O   0  0  0  0  0  0  0  0  0  0  0  0
   -5.3235    1.9668    8.6095 N   0  0  0  0  0  0  0  0  0  0  0  0
   -6.6276    1.9175    7.9836 C   0  0  0  0  0  0  0  0  0  0  0  0
   -7.4731    0.9552    8.7450 C   0  0  0  0  0  0  0  0  0  0  0  0
   -7.6296    1.3773   10.1750 C   0  0  0  0  0  0  0  0  0  0  0  0
   -6.3939    1.8150   10.8477 C   0  0  0  0  0  0  0  0  0  0  0  0
   -5.2485    2.2480   10.0001 C   0  0  0  0  0  0  0  0  0  0  0  0
   -8.5879    2.4181   10.2242 O   0  0  0  0  0  0  0  0  0  0  0  0
   -9.3013    2.3407   11.4102 C   0  0  0  0  0  0  0  0  0  0  0  0
  -10.0715    3.2657   12.1276 C   0  0  0  0  0  0  0  0  0  0  0  0
  -10.6819    2.8994   13.3097 C   0  0  0  0  0  0  0  0  0  0  0  0
  -10.4982    1.5962   13.7426 C   0  0  0  0  0  0  0  0  0  0  0  0
   -9.7479    0.6847   13.0495 C   0  0  0  0  0  0  0  0  0  0  0  0
   -9.1393    1.0511   11.8703 C   0  0  0  0  0  0  0  0  0  0  0  0
   -8.3232    0.3776   10.9395 O   0  0  0  0  0  0  0  0  0  0  0  0
  1  2  1  0
  2  3  1  0
  2  4  1  0
  4  5  1  0
  5  6  2  0
  6  7  1  0
  7  8  2  0
  8  9  1  0
  9 10  2  0
  4 11  1  0
 11 12  2  0
 11 13  1  0
 13 14  1  0
 14 15  1  0
 15 16  1  0
 16 17  1  0
 17 18  1  0
 16 19  1  0
 19 20  1  0
 20 21  2  0
 21 22  1  0
 22 23  2  0
 23 24  1  0
 24 25  2  0
 25 26  1  0
 10  5  1  0
 18 13  1  0
 26 16  1  0
 25 20  1  0
M  END
$$$$
