
     RDKit          3D

 26 29  0  0  0  0  0  0  0  0999 V2000
   -1.8157    0.7392    1.4916 C   0  0  0  0  0  0  0  0  0  0  0  0
   -1.2322   -0.1507    2.6003 C   0  0  0  0  0  0  0  0  0  0  0  0
    0.0854   -0.6675    2.0524 C   0  0  0  0  0  0  0  0  0  0  0  0
   -1.0744    0.6472    3.8755 C   0  0  0  0  0  0  0  0  0  0  0  0
   -0.3927   -0.1994    4.9221 C   0  0  0  0  0  0  0  0  0  0  0  0
    0.7636    0.2036    5.5365 C   0  0  0  0  0  0  0  0  0  0  0  0
    1.3595   -0.5857    6.4907 C   0  0  0  0  0  0  0  0  0  0  0  0
    0.8179   -1.7913    6.8527 C   0  0  0  0  0  0  0  0  0  0  0  0
   -0.3425   -2.2190    6.2507 C   0  0  0  0  0  0  0  0  0  0  0  0
   -0.9244   -1.4179    5.2998 C   0  0  0  0  0  0  0  0  0  0  0  0
   -2.3165    1.2304    4.3910 C   0  0  0  0  0  0  0  0  0  0  0  0
   -3.3859    1.0294    3.6956 O   0  0  0  0  0  0  0  0  0  0  0  0
   -2.4842    1.9869    5.5612 N   0  0  0  0  0  0  0  0  0  0  0  0
   -3.7722    2.5750    5.8607 C   0  0  0  0  0  0  0  0  0  0  0  0
   -4.1841    2.1259    7.2207 C   0  0  0  0  0  0  0  0  0  0  0  0
   -3.1937    2.5547    8.2613 C   0  0  0  0  0  0  0  0  0  0  0  0
   -1.7771    2.3397    7.9180 C   0  0  0  0  0  0  0  0  0  0  0  0
   -1.4190    2.1815    6.4811 C   0  0  0  0  0  0  0  0  0  0  0  0
   -3.4099    3.9266    8.5358 O   0  0  0  0  0  0  0  0  0  0  0  0
   -3.1305    4.1861    9.8684 C   0  0  0  0  0  0  0  0  0  0  0  0
   -2.8270    5.3584   10.5735 C   0  0  0  0  0  0  0  0  0  0  0  0
   -2.5886    5.3152   11.9319 C   0  0  0  0  0  0  0  0  0  0  0  0
   -2.6631    4.0780   12.5512 C   0  0  0  0  0  0  0  0  0  0  0  0
   -2.9588    2.9268   11.8719 C   0  0  0  0  0  0  0  0  0  0  0  0
   -3.1964    2.9710   10.5167 C   0  0  0  0  0  0  0  0  0  0  0  0
   -3.5172    2.0000    9.5469 O   0  0  0  0  0  0  0  0  0  0  0  0
  1  2  1  0
  2  3  1  0
  2  4  1  0
  4  5  1  0
  5  6  2  0
  6  7  1  0
  7  8  2  0
  8  9  1  0
  9 10  2  0
  4 11  1  0
 11 12  2  0
 11 13  1  0
 13 14  1  0
 14 15  1  0
 15 16  1  0
 16 17  1  0
 17 18  1  0
 16 19  1  0
 19 20  1  0
 20 21  2  0
 21 22  1  0
 22 23  2  0
 23 24  1  0
 24 25  2  0
 25 26  1  0
 10  5  1  0
 18 13  1  0
 26 16  1  0
 25 20  1  0
M  END
$$$$
