
     RDKit          3D

 26 29  0  0  0  0  0  0  0  0999 V2000
   -1.8986   -0.7318    6.8339 C   0  0  0  0  0  0  0  0  0  0  0  0
   -1.5952    0.7676    6.6872 C   0  0  0  0  0  0  0  0  0  0  0  0
   -1.3231    0.9824    5.2097 C   0  0  0  0  0  0  0  0  0  0  0  0
   -2.7591    1.5843    7.2029 C   0  0  0  0  0  0  0  0  0  0  0  0
   -2.5164    3.0467    6.9211 C   0  0  0  0  0  0  0  0  0  0  0  0
   -3.1879    3.7125    5.9297 C   0  0  0  0  0  0  0  0  0  0  0  0
   -2.9507    5.0463    5.6992 C   0  0  0  0  0  0  0  0  0  0  0  0
   -2.0410    5.7446    6.4495 C   0  0  0  0  0  0  0  0  0  0  0  0
   -1.3535    5.0993    7.4508 C   0  0  0  0  0  0  0  0  0  0  0  0
   -1.6030    3.7669    7.6674 C   0  0  0  0  0  0  0  0  0  0  0  0
   -3.0852    1.3629    8.6147 C   0  0  0  0  0  0  0  0  0  0  0  0
   -2.1666    0.8260    9.3466 O   0  0  0  0  0  0  0  0  0  0  0  0
   -4.2868    1.6685    9.2724 N   0  0  0  0  0  0  0  0  0  0  0  0
   -5.3615    2.3123    8.5477 C   0  0  0  0  0  0  0  0  0  0  0  0
   -6.5889    1.4810    8.6998 C   0  0  0  0  0  0  0  0  0  0  0  0
   -6.9807    1.3429   10.1403 C   0  0  0  0  0  0  0  0  0  0  0  0
   -5.8810    1.0371   11.0720 C   0  0  0  0  0  0  0  0  0  0  0  0
   -4.4893    1.3460   10.6412 C   0  0  0  0  0  0  0  0  0  0  0  0
   -7.6181    2.5421   10.5398 O   0  0  0  0  0  0  0  0  0  0  0  0
   -8.5985    2.2600   11.4781 C   0  0  0  0  0  0  0  0  0  0  0  0
   -9.2563    3.0374   12.4407 C   0  0  0  0  0  0  0  0  0  0  0  0
  -10.2144    2.4742   13.2585 C   0  0  0  0  0  0  0  0  0  0  0  0
  -10.4877    1.1272   13.0829 C   0  0  0  0  0  0  0  0  0  0  0  0
   -9.8511    0.3587   12.1458 C   0  0  0  0  0  0  0  0  0  0  0  0
   -8.8954    0.9216   11.3304 C   0  0  0  0  0  0  0  0  0  0  0  0
   -8.0767    0.4266   10.2955 O   0  0  0  0  0  0  0  0  0  0  0  0
  1  2  1  0
  2  3  1  0
  2  4  1  0
  4  5  1  0
  5  6  2  0
  6  7  1  0
  7  8  2  0
  8  9  1  0
  9 10  2  0
  4 11  1  0
 11 12  2  0
 11 13  1  0
 13 14  1  0
 14 15  1  0
 15 16  1  0
 16 17  1  0
 17 18  1  0
 16 19  1  0
 19 20  1  0
 20 21  2  0
 21 22  1  0
 22 23  2  0
 23 24  1  0
 24 25  2  0
 25 26  1  0
 10  5  1  0
 18 13  1  0
 26 16  1  0
 25 20  1  0
M  END
$$$$
