
     RDKit          3D

 26 29  0  0  0  0  0  0  0  0999 V2000
   -2.8646    3.9693    6.2340 C   0  0  0  0  0  0  0  0  0  0  0  0
   -2.2036    2.8056    6.9894 C   0  0  0  0  0  0  0  0  0  0  0  0
   -0.8100    3.2922    7.3420 C   0  0  0  0  0  0  0  0  0  0  0  0
   -3.0304    2.4391    8.2017 C   0  0  0  0  0  0  0  0  0  0  0  0
   -2.2713    1.4515    9.0533 C   0  0  0  0  0  0  0  0  0  0  0  0
   -1.7126    1.8104   10.2516 C   0  0  0  0  0  0  0  0  0  0  0  0
   -1.0315    0.8881   11.0091 C   0  0  0  0  0  0  0  0  0  0  0  0
   -0.8920   -0.4092   10.5902 C   0  0  0  0  0  0  0  0  0  0  0  0
   -1.4433   -0.7951    9.3907 C   0  0  0  0  0  0  0  0  0  0  0  0
   -2.1205    0.1392    8.6469 C   0  0  0  0  0  0  0  0  0  0  0  0
   -4.3794    1.9520    7.8989 C   0  0  0  0  0  0  0  0  0  0  0  0
   -4.5207    1.2683    6.8124 O   0  0  0  0  0  0  0  0  0  0  0  0
   -5.5461    2.1404    8.6559 N   0  0  0  0  0  0  0  0  0  0  0  0
   -6.8025    1.5919    8.1921 C   0  0  0  0  0  0  0  0  0  0  0  0
   -7.3678    0.7411    9.2773 C   0  0  0  0  0  0  0  0  0  0  0  0
   -7.6090    1.5358   10.5255 C   0  0  0  0  0  0  0  0  0  0  0  0
   -6.5164    2.4402   10.9247 C   0  0  0  0  0  0  0  0  0  0  0  0
   -5.5281    2.8479    9.8879 C   0  0  0  0  0  0  0  0  0  0  0  0
   -8.7989    2.2821   10.3489 O   0  0  0  0  0  0  0  0  0  0  0  0
   -9.4553    2.4091   11.5632 C   0  0  0  0  0  0  0  0  0  0  0  0
  -10.4260    3.3004   12.0395 C   0  0  0  0  0  0  0  0  0  0  0  0
  -10.9097    3.1846   13.3267 C   0  0  0  0  0  0  0  0  0  0  0  0
  -10.3969    2.1623   14.1087 C   0  0  0  0  0  0  0  0  0  0  0  0
   -9.4486    1.2863   13.6533 C   0  0  0  0  0  0  0  0  0  0  0  0
   -8.9667    1.4027   12.3691 C   0  0  0  0  0  0  0  0  0  0  0  0
   -8.0178    0.6876   11.6111 O   0  0  0  0  0  0  0  0  0  0  0  0
  1  2  1  0
  2  3  1  0
  2  4  1  0
  4  5  1  0
  5  6  2  0
  6  7  1  0
  7  8  2  0
  8  9  1  0
  9 10  2  0
  4 11  1  0
 11 12  2  0
 11 13  1  0
 13 14  1  0
 14 15  1  0
 15 16  1  0
 16 17  1  0
 17 18  1  0
 16 19  1  0
 19 20  1  0
 20 21  2  0
 21 22  1  0
 22 23  2  0
 23 24  1  0
 24 25  2  0
 25 26  1  0
 10  5  1  0
 18 13  1  0
 26 16  1  0
 25 20  1  0
M  END
$$$$
