
     RDKit          3D

 26 29  0  0  0  0  0  0  0  0999 V2000
   -2.9820    5.1627    8.3173 C   0  0  0  0  0  0  0  0  0  0  0  0
   -2.3516    3.9202    7.6688 C   0  0  0  0  0  0  0  0  0  0  0  0
   -0.8861    3.9589    8.0613 C   0  0  0  0  0  0  0  0  0  0  0  0
   -3.0619    2.6719    8.1429 C   0  0  0  0  0  0  0  0  0  0  0  0
   -2.3071    1.4513    7.6770 C   0  0  0  0  0  0  0  0  0  0  0  0
   -2.1986    1.1322    6.3490 C   0  0  0  0  0  0  0  0  0  0  0  0
   -1.4998    0.0171    5.9531 C   0  0  0  0  0  0  0  0  0  0  0  0
   -0.8953   -0.8030    6.8696 C   0  0  0  0  0  0  0  0  0  0  0  0
   -0.9894   -0.5050    8.2090 C   0  0  0  0  0  0  0  0  0  0  0  0
   -1.6912    0.6128    8.5867 C   0  0  0  0  0  0  0  0  0  0  0  0
   -4.4778    2.5942    7.7717 C   0  0  0  0  0  0  0  0  0  0  0  0
   -4.7426    2.4398    6.5171 O   0  0  0  0  0  0  0  0  0  0  0  0
   -5.5902    2.6668    8.6244 N   0  0  0  0  0  0  0  0  0  0  0  0
   -6.9208    2.7753    8.0655 C   0  0  0  0  0  0  0  0  0  0  0  0
   -7.7518    1.6718    8.6244 C   0  0  0  0  0  0  0  0  0  0  0  0
   -7.8378    1.7550   10.1188 C   0  0  0  0  0  0  0  0  0  0  0  0
   -6.5657    2.0143   10.8156 C   0  0  0  0  0  0  0  0  0  0  0  0
   -5.4496    2.6197   10.0374 C   0  0  0  0  0  0  0  0  0  0  0  0
   -8.7721    2.7657   10.4501 O   0  0  0  0  0  0  0  0  0  0  0  0
   -9.4350    2.4244   11.6186 C   0  0  0  0  0  0  0  0  0  0  0  0
  -10.1547    3.1668   12.5643 C   0  0  0  0  0  0  0  0  0  0  0  0
  -10.7208    2.5442   13.6580 C   0  0  0  0  0  0  0  0  0  0  0  0
  -10.5447    1.1746   13.7712 C   0  0  0  0  0  0  0  0  0  0  0  0
   -9.8435    0.4399   12.8533 C   0  0  0  0  0  0  0  0  0  0  0  0
   -9.2791    1.0620   11.7626 C   0  0  0  0  0  0  0  0  0  0  0  0
   -8.5177    0.6129   10.6650 O   0  0  0  0  0  0  0  0  0  0  0  0
  1  2  1  0
  2  3  1  0
  2  4  1  0
  4  5  1  0
  5  6  2  0
  6  7  1  0
  7  8  2  0
  8  9  1  0
  9 10  2  0
  4 11  1  0
 11 12  2  0
 11 13  1  0
 13 14  1  0
 14 15  1  0
 15 16  1  0
 16 17  1  0
 17 18  1  0
 16 19  1  0
 19 20  1  0
 20 21  2  0
 21 22  1  0
 22 23  2  0
 23 24  1  0
 24 25  2  0
 25 26  1  0
 10  5  1  0
 18 13  1  0
 26 16  1  0
 25 20  1  0
M  END
$$$$
