
     RDKit          3D

 26 29  0  0  0  0  0  0  0  0999 V2000
   -4.3835   -1.1135    5.1710 C   0  0  0  0  0  0  0  0  0  0  0  0
   -3.3707   -1.6426    6.1986 C   0  0  0  0  0  0  0  0  0  0  0  0
   -2.5533   -2.6865    5.4602 C   0  0  0  0  0  0  0  0  0  0  0  0
   -2.5344   -0.5025    6.7357 C   0  0  0  0  0  0  0  0  0  0  0  0
   -1.5109   -1.0382    7.7065 C   0  0  0  0  0  0  0  0  0  0  0  0
   -1.8545   -1.4386    8.9708 C   0  0  0  0  0  0  0  0  0  0  0  0
   -0.9019   -1.9280    9.8320 C   0  0  0  0  0  0  0  0  0  0  0  0
    0.4112   -2.0289    9.4532 C   0  0  0  0  0  0  0  0  0  0  0  0
    0.7824   -1.6335    8.1892 C   0  0  0  0  0  0  0  0  0  0  0  0
   -0.1823   -1.1471    7.3421 C   0  0  0  0  0  0  0  0  0  0  0  0
   -3.3037    0.5957    7.3279 C   0  0  0  0  0  0  0  0  0  0  0  0
   -4.5483    0.3631    7.5823 O   0  0  0  0  0  0  0  0  0  0  0  0
   -2.8450    1.8810    7.6556 N   0  0  0  0  0  0  0  0  0  0  0  0
   -1.5075    2.2864    7.2798 C   0  0  0  0  0  0  0  0  0  0  0  0
   -1.6071    3.5496    6.4954 C   0  0  0  0  0  0  0  0  0  0  0  0
   -2.2450    4.6431    7.2985 C   0  0  0  0  0  0  0  0  0  0  0  0
   -3.4532    4.2588    8.0492 C   0  0  0  0  0  0  0  0  0  0  0  0
   -3.6700    2.8142    8.3391 C   0  0  0  0  0  0  0  0  0  0  0  0
   -1.2752    5.1541    8.1943 O   0  0  0  0  0  0  0  0  0  0  0  0
   -1.4879    6.5098    8.3895 C   0  0  0  0  0  0  0  0  0  0  0  0
   -1.0968    7.4068    9.3924 C   0  0  0  0  0  0  0  0  0  0  0  0
   -1.4632    8.7354    9.3236 C   0  0  0  0  0  0  0  0  0  0  0  0
   -2.2225    9.1296    8.2338 C   0  0  0  0  0  0  0  0  0  0  0  0
   -2.6099    8.2617    7.2486 C   0  0  0  0  0  0  0  0  0  0  0  0
   -2.2438    6.9364    7.3182 C   0  0  0  0  0  0  0  0  0  0  0  0
   -2.4698    5.8140    6.4964 O   0  0  0  0  0  0  0  0  0  0  0  0
  1  2  1  0
  2  3  1  0
  2  4  1  0
  4  5  1  0
  5  6  2  0
  6  7  1  0
  7  8  2  0
  8  9  1  0
  9 10  2  0
  4 11  1  0
 11 12  2  0
 11 13  1  0
 13 14  1  0
 14 15  1  0
 15 16  1  0
 16 17  1  0
 17 18  1  0
 16 19  1  0
 19 20  1  0
 20 21  2  0
 21 22  1  0
 22 23  2  0
 23 24  1  0
 24 25  2  0
 25 26  1  0
 10  5  1  0
 18 13  1  0
 26 16  1  0
 25 20  1  0
M  END
$$$$
