
     RDKit          3D

 26 29  0  0  0  0  0  0  0  0999 V2000
   -9.8838    3.4198    8.9547 C   0  0  0  0  0  0  0  0  0  0  0  0
  -10.3531    2.7859   10.2736 C   0  0  0  0  0  0  0  0  0  0  0  0
  -11.5890    1.9801    9.9177 C   0  0  0  0  0  0  0  0  0  0  0  0
   -9.2449    1.9450   10.8672 C   0  0  0  0  0  0  0  0  0  0  0  0
   -9.6730    1.4212   12.2160 C   0  0  0  0  0  0  0  0  0  0  0  0
   -9.9123    0.0896   12.4312 C   0  0  0  0  0  0  0  0  0  0  0  0
  -10.2956   -0.3600   13.6719 C   0  0  0  0  0  0  0  0  0  0  0  0
  -10.4488    0.5055   14.7233 C   0  0  0  0  0  0  0  0  0  0  0  0
  -10.2148    1.8475   14.5336 C   0  0  0  0  0  0  0  0  0  0  0  0
   -9.8326    2.2792   13.2877 C   0  0  0  0  0  0  0  0  0  0  0  0
   -7.9432    2.6144   10.9465 C   0  0  0  0  0  0  0  0  0  0  0  0
   -7.9265    3.7931   11.4738 O   0  0  0  0  0  0  0  0  0  0  0  0
   -6.7015    2.1224   10.5152 N   0  0  0  0  0  0  0  0  0  0  0  0
   -6.6042    0.7811    9.9805 C   0  0  0  0  0  0  0  0  0  0  0  0
   -5.9770    0.8623    8.6311 C   0  0  0  0  0  0  0  0  0  0  0  0
   -4.6059    1.4647    8.7007 C   0  0  0  0  0  0  0  0  0  0  0  0
   -4.4832    2.6714    9.5373 C   0  0  0  0  0  0  0  0  0  0  0  0
   -5.5252    2.9170   10.5726 C   0  0  0  0  0  0  0  0  0  0  0  0
   -3.7125    0.4720    9.1702 O   0  0  0  0  0  0  0  0  0  0  0  0
   -2.4672    0.6513    8.5883 C   0  0  0  0  0  0  0  0  0  0  0  0
   -1.1774    0.2269    8.9344 C   0  0  0  0  0  0  0  0  0  0  0  0
   -0.0958    0.5640    8.1467 C   0  0  0  0  0  0  0  0  0  0  0  0
   -0.3450    1.3284    7.0183 C   0  0  0  0  0  0  0  0  0  0  0  0
   -1.6009    1.7481    6.6711 C   0  0  0  0  0  0  0  0  0  0  0  0
   -2.6794    1.4113    7.4577 C   0  0  0  0  0  0  0  0  0  0  0  0
   -4.0623    1.6734    7.3870 O   0  0  0  0  0  0  0  0  0  0  0  0
  1  2  1  0
  2  3  1  0
  2  4  1  0
  4  5  1  0
  5  6  2  0
  6  7  1  0
  7  8  2  0
  8  9  1  0
  9 10  2  0
  4 11  1  0
 11 12  2  0
 11 13  1  0
 13 14  1  0
 14 15  1  0
 15 16  1  0
 16 17  1  0
 17 18  1  0
 16 19  1  0
 19 20  1  0
 20 21  2  0
 21 22  1  0
 22 23  2  0
 23 24  1  0
 24 25  2  0
 25 26  1  0
 10  5  1  0
 18 13  1  0
 26 16  1  0
 25 20  1  0
M  END
$$$$
