
     RDKit          3D

 26 29  0  0  0  0  0  0  0  0999 V2000
   -8.5425    4.3504    9.4379 C   0  0  0  0  0  0  0  0  0  0  0  0
   -9.1022    3.4579   10.5568 C   0  0  0  0  0  0  0  0  0  0  0  0
  -10.5376    3.1650   10.1603 C   0  0  0  0  0  0  0  0  0  0  0  0
   -8.2572    2.2114   10.6965 C   0  0  0  0  0  0  0  0  0  0  0  0
   -8.7732    1.3749   11.8414 C   0  0  0  0  0  0  0  0  0  0  0  0
   -8.6984    0.0070   11.8279 C   0  0  0  0  0  0  0  0  0  0  0  0
   -9.1713   -0.7292   12.8875 C   0  0  0  0  0  0  0  0  0  0  0  0
   -9.7282   -0.1201   13.9815 C   0  0  0  0  0  0  0  0  0  0  0  0
   -9.8153    1.2520   14.0198 C   0  0  0  0  0  0  0  0  0  0  0  0
   -9.3379    1.9717   12.9527 C   0  0  0  0  0  0  0  0  0  0  0  0
   -6.8181    2.4581   10.8258 C   0  0  0  0  0  0  0  0  0  0  0  0
   -6.4485    3.2682   11.7611 O   0  0  0  0  0  0  0  0  0  0  0  0
   -5.7843    1.9132   10.0484 N   0  0  0  0  0  0  0  0  0  0  0  0
   -6.0974    0.9948    8.9746 C   0  0  0  0  0  0  0  0  0  0  0  0
   -5.4864    1.5192    7.7206 C   0  0  0  0  0  0  0  0  0  0  0  0
   -3.9973    1.6391    7.8466 C   0  0  0  0  0  0  0  0  0  0  0  0
   -3.5119    2.2469    9.0980 C   0  0  0  0  0  0  0  0  0  0  0  0
   -4.4236    2.2529   10.2755 C   0  0  0  0  0  0  0  0  0  0  0  0
   -3.4379    0.3467    7.7015 O   0  0  0  0  0  0  0  0  0  0  0  0
   -2.2012    0.4398    7.0826 C   0  0  0  0  0  0  0  0  0  0  0  0
   -1.0946   -0.4174    7.0183 C   0  0  0  0  0  0  0  0  0  0  0  0
    0.0316   -0.0530    6.3089 C   0  0  0  0  0  0  0  0  0  0  0  0
    0.0129    1.1793    5.6760 C   0  0  0  0  0  0  0  0  0  0  0  0
   -1.0628    2.0242    5.7324 C   0  0  0  0  0  0  0  0  0  0  0  0
   -2.1858    1.6598    6.4403 C   0  0  0  0  0  0  0  0  0  0  0  0
   -3.4274    2.2772    6.6920 O   0  0  0  0  0  0  0  0  0  0  0  0
  1  2  1  0
  2  3  1  0
  2  4  1  0
  4  5  1  0
  5  6  2  0
  6  7  1  0
  7  8  2  0
  8  9  1  0
  9 10  2  0
  4 11  1  0
 11 12  2  0
 11 13  1  0
 13 14  1  0
 14 15  1  0
 15 16  1  0
 16 17  1  0
 17 18  1  0
 16 19  1  0
 19 20  1  0
 20 21  2  0
 21 22  1  0
 22 23  2  0
 23 24  1  0
 24 25  2  0
 25 26  1  0
 10  5  1  0
 18 13  1  0
 26 16  1  0
 25 20  1  0
M  END
$$$$
