
     RDKit          3D

 26 29  0  0  0  0  0  0  0  0999 V2000
  -10.6998   -0.2464   10.0836 C   0  0  0  0  0  0  0  0  0  0  0  0
  -10.8705    0.4290   11.4535 C   0  0  0  0  0  0  0  0  0  0  0  0
  -11.1720   -0.6975   12.4248 C   0  0  0  0  0  0  0  0  0  0  0  0
   -9.6204    1.2027   11.8087 C   0  0  0  0  0  0  0  0  0  0  0  0
   -9.8026    1.8727   13.1484 C   0  0  0  0  0  0  0  0  0  0  0  0
  -10.6887    2.9022   13.3268 C   0  0  0  0  0  0  0  0  0  0  0  0
  -10.8380    3.4900   14.5599 C   0  0  0  0  0  0  0  0  0  0  0  0
  -10.1091    3.0660   15.6402 C   0  0  0  0  0  0  0  0  0  0  0  0
   -9.2125    2.0342   15.4877 C   0  0  0  0  0  0  0  0  0  0  0  0
   -9.0762    1.4586   14.2489 C   0  0  0  0  0  0  0  0  0  0  0  0
   -9.1836    2.1623   10.7904 C   0  0  0  0  0  0  0  0  0  0  0  0
  -10.0846    2.5909    9.9706 O   0  0  0  0  0  0  0  0  0  0  0  0
   -7.8918    2.6765   10.5989 N   0  0  0  0  0  0  0  0  0  0  0  0
   -6.7953    2.1904   11.4089 C   0  0  0  0  0  0  0  0  0  0  0  0
   -5.7182    1.7133   10.4962 C   0  0  0  0  0  0  0  0  0  0  0  0
   -5.2236    2.8170    9.6102 C   0  0  0  0  0  0  0  0  0  0  0  0
   -6.2681    3.6492    8.9877 C   0  0  0  0  0  0  0  0  0  0  0  0
   -7.6209    3.6602    9.6102 C   0  0  0  0  0  0  0  0  0  0  0  0
   -4.3575    3.6379   10.3718 O   0  0  0  0  0  0  0  0  0  0  0  0
   -3.3565    4.1434    9.5570 C   0  0  0  0  0  0  0  0  0  0  0  0
   -2.4898    5.2386    9.6704 C   0  0  0  0  0  0  0  0  0  0  0  0
   -1.5697    5.5076    8.6779 C   0  0  0  0  0  0  0  0  0  0  0  0
   -1.5466    4.6562    7.5850 C   0  0  0  0  0  0  0  0  0  0  0  0
   -2.3887    3.5836    7.4643 C   0  0  0  0  0  0  0  0  0  0  0  0
   -3.3063    3.3162    8.4550 C   0  0  0  0  0  0  0  0  0  0  0  0
   -4.2896    2.3229    8.6363 O   0  0  0  0  0  0  0  0  0  0  0  0
  1  2  1  0
  2  3  1  0
  2  4  1  0
  4  5  1  0
  5  6  2  0
  6  7  1  0
  7  8  2  0
  8  9  1  0
  9 10  2  0
  4 11  1  0
 11 12  2  0
 11 13  1  0
 13 14  1  0
 14 15  1  0
 15 16  1  0
 16 17  1  0
 17 18  1  0
 16 19  1  0
 19 20  1  0
 20 21  2  0
 21 22  1  0
 22 23  2  0
 23 24  1  0
 24 25  2  0
 25 26  1  0
 10  5  1  0
 18 13  1  0
 26 16  1  0
 25 20  1  0
M  END
$$$$
