
     RDKit          3D

 26 29  0  0  0  0  0  0  0  0999 V2000
  -10.5062    2.4591    7.7601 C   0  0  0  0  0  0  0  0  0  0  0  0
  -10.9386    2.0306    9.1712 C   0  0  0  0  0  0  0  0  0  0  0  0
  -11.6888    0.7244    8.9849 C   0  0  0  0  0  0  0  0  0  0  0  0
   -9.7267    1.8984   10.0664 C   0  0  0  0  0  0  0  0  0  0  0  0
  -10.1380    2.0816   11.5066 C   0  0  0  0  0  0  0  0  0  0  0  0
  -11.4246    2.3973   11.8560 C   0  0  0  0  0  0  0  0  0  0  0  0
  -11.7720    2.5525   13.1764 C   0  0  0  0  0  0  0  0  0  0  0  0
  -10.8473    2.3971   14.1757 C   0  0  0  0  0  0  0  0  0  0  0  0
   -9.5487    2.0803   13.8516 C   0  0  0  0  0  0  0  0  0  0  0  0
   -9.2192    1.9289   12.5275 C   0  0  0  0  0  0  0  0  0  0  0  0
   -8.6083    2.7795    9.7177 C   0  0  0  0  0  0  0  0  0  0  0  0
   -8.7627    4.0387    9.9591 O   0  0  0  0  0  0  0  0  0  0  0  0
   -7.3782    2.4147    9.1488 N   0  0  0  0  0  0  0  0  0  0  0  0
   -6.5313    3.4262    8.5535 C   0  0  0  0  0  0  0  0  0  0  0  0
   -5.1873    3.3424    9.1918 C   0  0  0  0  0  0  0  0  0  0  0  0
   -4.5654    1.9945    8.9819 C   0  0  0  0  0  0  0  0  0  0  0  0
   -5.4546    0.8417    9.2084 C   0  0  0  0  0  0  0  0  0  0  0  0
   -6.9255    1.0680    9.1542 C   0  0  0  0  0  0  0  0  0  0  0  0
   -4.0561    1.9457    7.6619 O   0  0  0  0  0  0  0  0  0  0  0  0
   -2.9141    1.1607    7.6305 C   0  0  0  0  0  0  0  0  0  0  0  0
   -2.2381    0.4928    6.6007 C   0  0  0  0  0  0  0  0  0  0  0  0
   -1.0952   -0.2321    6.8700 C   0  0  0  0  0  0  0  0  0  0  0  0
   -0.6587   -0.2652    8.1846 C   0  0  0  0  0  0  0  0  0  0  0  0
   -1.3115    0.3836    9.1980 C   0  0  0  0  0  0  0  0  0  0  0  0
   -2.4516    1.1065    8.9282 C   0  0  0  0  0  0  0  0  0  0  0  0
   -3.3370    1.8684    9.7168 O   0  0  0  0  0  0  0  0  0  0  0  0
  1  2  1  0
  2  3  1  0
  2  4  1  0
  4  5  1  0
  5  6  2  0
  6  7  1  0
  7  8  2  0
  8  9  1  0
  9 10  2  0
  4 11  1  0
 11 12  2  0
 11 13  1  0
 13 14  1  0
 14 15  1  0
 15 16  1  0
 16 17  1  0
 17 18  1  0
 16 19  1  0
 19 20  1  0
 20 21  2  0
 21 22  1  0
 22 23  2  0
 23 24  1  0
 24 25  2  0
 25 26  1  0
 10  5  1  0
 18 13  1  0
 26 16  1  0
 25 20  1  0
M  END
$$$$
