
     RDKit          3D

 26 29  0  0  0  0  0  0  0  0999 V2000
   -1.0020   -2.1134    8.1241 C   0  0  0  0  0  0  0  0  0  0  0  0
   -0.6001   -1.1189    9.2247 C   0  0  0  0  0  0  0  0  0  0  0  0
    0.8394   -1.4557    9.5679 C   0  0  0  0  0  0  0  0  0  0  0  0
   -0.7779    0.2996    8.7310 C   0  0  0  0  0  0  0  0  0  0  0  0
   -0.3659    1.2681    9.8123 C   0  0  0  0  0  0  0  0  0  0  0  0
    0.4963    2.3035    9.5646 C   0  0  0  0  0  0  0  0  0  0  0  0
    0.8497    3.1738   10.5676 C   0  0  0  0  0  0  0  0  0  0  0  0
    0.3529    3.0319   11.8369 C   0  0  0  0  0  0  0  0  0  0  0  0
   -0.5145    2.0005   12.1119 C   0  0  0  0  0  0  0  0  0  0  0  0
   -0.8567    1.1405   11.0979 C   0  0  0  0  0  0  0  0  0  0  0  0
   -2.1183    0.6086    8.2243 C   0  0  0  0  0  0  0  0  0  0  0  0
   -3.1128    0.3172    8.9949 O   0  0  0  0  0  0  0  0  0  0  0  0
   -2.4530    1.1896    6.9914 N   0  0  0  0  0  0  0  0  0  0  0  0
   -1.4060    1.6024    6.0814 C   0  0  0  0  0  0  0  0  0  0  0  0
   -1.6470    0.9451    4.7658 C   0  0  0  0  0  0  0  0  0  0  0  0
   -2.9770    1.3357    4.1949 C   0  0  0  0  0  0  0  0  0  0  0  0
   -4.1072    1.3096    5.1399 C   0  0  0  0  0  0  0  0  0  0  0  0
   -3.8057    1.3721    6.5970 C   0  0  0  0  0  0  0  0  0  0  0  0
   -2.8544    2.6328    3.6413 O   0  0  0  0  0  0  0  0  0  0  0  0
   -3.6795    2.7479    2.5334 C   0  0  0  0  0  0  0  0  0  0  0  0
   -4.2193    3.8457    1.8501 C   0  0  0  0  0  0  0  0  0  0  0  0
   -5.0295    3.6546    0.7496 C   0  0  0  0  0  0  0  0  0  0  0  0
   -5.2772    2.3476    0.3621 C   0  0  0  0  0  0  0  0  0  0  0  0
   -4.7549    1.2681    1.0224 C   0  0  0  0  0  0  0  0  0  0  0  0
   -3.9468    1.4599    2.1203 C   0  0  0  0  0  0  0  0  0  0  0  0
   -3.2685    0.5925    3.0000 O   0  0  0  0  0  0  0  0  0  0  0  0
  1  2  1  0
  2  3  1  0
  2  4  1  0
  4  5  1  0
  5  6  2  0
  6  7  1  0
  7  8  2  0
  8  9  1  0
  9 10  2  0
  4 11  1  0
 11 12  2  0
 11 13  1  0
 13 14  1  0
 14 15  1  0
 15 16  1  0
 16 17  1  0
 17 18  1  0
 16 19  1  0
 19 20  1  0
 20 21  2  0
 21 22  1  0
 22 23  2  0
 23 24  1  0
 24 25  2  0
 25 26  1  0
 10  5  1  0
 18 13  1  0
 26 16  1  0
 25 20  1  0
M  END
$$$$
