
     RDKit          3D

 26 29  0  0  0  0  0  0  0  0999 V2000
   -4.4214    3.9429    7.1136 C   0  0  0  0  0  0  0  0  0  0  0  0
   -3.3580    2.9998    7.6978 C   0  0  0  0  0  0  0  0  0  0  0  0
   -2.1115    3.8495    7.8642 C   0  0  0  0  0  0  0  0  0  0  0  0
   -3.8512    2.4056    8.9983 C   0  0  0  0  0  0  0  0  0  0  0  0
   -2.7495    1.5944    9.6349 C   0  0  0  0  0  0  0  0  0  0  0  0
   -2.3073    1.8489   10.9064 C   0  0  0  0  0  0  0  0  0  0  0  0
   -1.3060    1.0900   11.4630 C   0  0  0  0  0  0  0  0  0  0  0  0
   -0.7243    0.0631   10.7665 C   0  0  0  0  0  0  0  0  0  0  0  0
   -1.1500   -0.2129    9.4881 C   0  0  0  0  0  0  0  0  0  0  0  0
   -2.1513    0.5553    8.9478 C   0  0  0  0  0  0  0  0  0  0  0  0
   -5.0873    1.6258    8.8859 C   0  0  0  0  0  0  0  0  0  0  0  0
   -5.0644    0.6113    8.0872 O   0  0  0  0  0  0  0  0  0  0  0  0
   -6.3033    1.8512    9.5494 N   0  0  0  0  0  0  0  0  0  0  0  0
   -7.4330    0.9820    9.2986 C   0  0  0  0  0  0  0  0  0  0  0  0
   -7.9057    0.4442   10.6056 C   0  0  0  0  0  0  0  0  0  0  0  0
   -8.3288    1.5465   11.5295 C   0  0  0  0  0  0  0  0  0  0  0  0
   -7.4144    2.6994   11.6048 C   0  0  0  0  0  0  0  0  0  0  0  0
   -6.4563    2.9100   10.4843 C   0  0  0  0  0  0  0  0  0  0  0  0
   -9.6129    1.9877   11.1290 O   0  0  0  0  0  0  0  0  0  0  0  0
  -10.3374    2.3877   12.2410 C   0  0  0  0  0  0  0  0  0  0  0  0
  -11.4591    3.2106   12.4091 C   0  0  0  0  0  0  0  0  0  0  0  0
  -11.9780    3.4364   13.6676 C   0  0  0  0  0  0  0  0  0  0  0  0
  -11.3460    2.8203   14.7355 C   0  0  0  0  0  0  0  0  0  0  0  0
  -10.2498    2.0147   14.5825 C   0  0  0  0  0  0  0  0  0  0  0  0
   -9.7329    1.7900   13.3265 C   0  0  0  0  0  0  0  0  0  0  0  0
   -8.6476    1.0372   12.8350 O   0  0  0  0  0  0  0  0  0  0  0  0
  1  2  1  0
  2  3  1  0
  2  4  1  0
  4  5  1  0
  5  6  2  0
  6  7  1  0
  7  8  2  0
  8  9  1  0
  9 10  2  0
  4 11  1  0
 11 12  2  0
 11 13  1  0
 13 14  1  0
 14 15  1  0
 15 16  1  0
 16 17  1  0
 17 18  1  0
 16 19  1  0
 19 20  1  0
 20 21  2  0
 21 22  1  0
 22 23  2  0
 23 24  1  0
 24 25  2  0
 25 26  1  0
 10  5  1  0
 18 13  1  0
 26 16  1  0
 25 20  1  0
M  END
$$$$
