
     RDKit          3D

 26 29  0  0  0  0  0  0  0  0999 V2000
  -12.2904    3.3017   11.7518 C   0  0  0  0  0  0  0  0  0  0  0  0
  -11.7542    2.8329   13.1136 C   0  0  0  0  0  0  0  0  0  0  0  0
  -12.8416    1.9466   13.6928 C   0  0  0  0  0  0  0  0  0  0  0  0
  -10.4355    2.1150   12.9316 C   0  0  0  0  0  0  0  0  0  0  0  0
  -10.0858    1.3689   14.1957 C   0  0  0  0  0  0  0  0  0  0  0  0
  -10.0997    1.9793   15.4221 C   0  0  0  0  0  0  0  0  0  0  0  0
   -9.7822    1.2734   16.5576 C   0  0  0  0  0  0  0  0  0  0  0  0
   -9.4444   -0.0533   16.4963 C   0  0  0  0  0  0  0  0  0  0  0  0
   -9.4227   -0.6895   15.2771 C   0  0  0  0  0  0  0  0  0  0  0  0
   -9.7427    0.0309   14.1532 C   0  0  0  0  0  0  0  0  0  0  0  0
   -9.3274    2.9700   12.4962 C   0  0  0  0  0  0  0  0  0  0  0  0
   -9.2063    4.1116   13.0877 O   0  0  0  0  0  0  0  0  0  0  0  0
   -8.3728    2.6934   11.5051 N   0  0  0  0  0  0  0  0  0  0  0  0
   -8.3475    1.3922   10.8720 C   0  0  0  0  0  0  0  0  0  0  0  0
   -8.4372    1.5901    9.3977 C   0  0  0  0  0  0  0  0  0  0  0  0
   -7.2905    2.4087    8.8852 C   0  0  0  0  0  0  0  0  0  0  0  0
   -6.9642    3.6099    9.6736 C   0  0  0  0  0  0  0  0  0  0  0  0
   -7.4290    3.6697   11.0872 C   0  0  0  0  0  0  0  0  0  0  0  0
   -6.1518    1.5711    8.8079 O   0  0  0  0  0  0  0  0  0  0  0  0
   -5.3583    1.9588    7.7396 C   0  0  0  0  0  0  0  0  0  0  0  0
   -4.0101    1.7482    7.4209 C   0  0  0  0  0  0  0  0  0  0  0  0
   -3.4773    2.2669    6.2585 C   0  0  0  0  0  0  0  0  0  0  0  0
   -4.3266    2.9923    5.4386 C   0  0  0  0  0  0  0  0  0  0  0  0
   -5.6450    3.2039    5.7404 C   0  0  0  0  0  0  0  0  0  0  0  0
   -6.1755    2.6860    6.9004 C   0  0  0  0  0  0  0  0  0  0  0  0
   -7.4544    2.7182    7.4915 O   0  0  0  0  0  0  0  0  0  0  0  0
  1  2  1  0
  2  3  1  0
  2  4  1  0
  4  5  1  0
  5  6  2  0
  6  7  1  0
  7  8  2  0
  8  9  1  0
  9 10  2  0
  4 11  1  0
 11 12  2  0
 11 13  1  0
 13 14  1  0
 14 15  1  0
 15 16  1  0
 16 17  1  0
 17 18  1  0
 16 19  1  0
 19 20  1  0
 20 21  2  0
 21 22  1  0
 22 23  2  0
 23 24  1  0
 24 25  2  0
 25 26  1  0
 10  5  1  0
 18 13  1  0
 26 16  1  0
 25 20  1  0
M  END
$$$$
