
     RDKit          3D

 23 24  0  0  0  0  0  0  0  0999 V2000
   -4.3604    0.7196   15.1794 O   0  0  0  0  0  0  0  0  0  0  0  0
   -4.2276    0.4921   13.8054 C   0  0  0  0  0  0  0  0  0  0  0  0
   -4.1862   -0.7836   13.2835 C   0  0  0  0  0  0  0  0  0  0  0  0
   -4.0559   -0.9834   11.9370 C   0  0  0  0  0  0  0  0  0  0  0  0
   -3.9591    0.0678   11.0309 C   0  0  0  0  0  0  0  0  0  0  0  0
   -4.0015    1.3395   11.5633 C   0  0  0  0  0  0  0  0  0  0  0  0
   -4.1328    1.5447   12.9193 C   0  0  0  0  0  0  0  0  0  0  0  0
   -3.8198   -0.1655    9.5898 C   0  0  0  0  0  0  0  0  0  0  0  0
   -2.3888   -0.2259    9.1319 C   0  0  0  0  0  0  0  0  0  0  0  0
   -2.3223   -1.0099    7.9127 N   0  0  0  0  0  4  0  0  0  0  0  0
   -0.9660   -1.3776    7.5696 C   0  0  0  0  0  0  0  0  0  0  0  0
   -0.9129   -2.1435    6.2544 C   0  0  1  0  0  0  0  0  0  0  0  0
    0.4839   -2.6241    6.0968 C   0  0  0  0  0  0  0  0  0  0  0  0
    1.0052   -2.8733    4.8477 C   0  0  0  0  0  0  0  0  0  0  0  0
    2.2987   -3.3185    4.7023 C   0  0  0  0  0  0  0  0  0  0  0  0
    3.0986   -3.5232    5.8164 C   0  0  0  0  0  0  0  0  0  0  0  0
    2.5820   -3.2754    7.0695 C   0  0  0  0  0  0  0  0  0  0  0  0
    1.2834   -2.8296    7.1955 C   0  0  0  0  0  0  0  0  0  0  0  0
    3.3914   -3.4823    8.2006 O   0  0  0  0  0  0  0  0  0  0  0  0
    4.4231   -3.9783    5.6783 O   0  0  0  0  0  0  0  0  0  0  0  0
   -1.7937   -3.2195    6.2488 O   0  0  0  0  0  0  0  0  0  0  0  0
   -1.5809   -0.8946   10.2007 C   0  0  0  0  0  0  0  0  0  0  0  0
   -1.9135    1.1815    8.8442 C   0  0  0  0  0  0  0  0  0  0  0  0
  1  2  1  0
  2  3  2  0
  3  4  1  0
  4  5  2  0
  5  6  1  0
  6  7  2  0
  5  8  1  0
  8  9  1  0
  9 10  1  0
 10 11  1  0
 11 12  1  0
 12 13  1  0
 13 14  2  0
 14 15  1  0
 15 16  2  0
 16 17  1  0
 17 18  2  0
 17 19  1  0
 16 20  1  0
 12 21  1  1
  9 22  1  0
  9 23  1  0
  7  2  1  0
 18 13  1  0
M  CHG  1  10   1
M  END
$$$$
