
     RDKit          3D

 23 24  0  0  0  0  0  0  0  0999 V2000
   -5.3014    3.2533   13.8421 O   0  0  0  0  0  0  0  0  0  0  0  0
   -5.0642    2.2883   12.8574 C   0  0  0  0  0  0  0  0  0  0  0  0
   -5.5254    2.4422   11.5671 C   0  0  0  0  0  0  0  0  0  0  0  0
   -5.2823    1.4863   10.6198 C   0  0  0  0  0  0  0  0  0  0  0  0
   -4.5692    0.3242   10.8959 C   0  0  0  0  0  0  0  0  0  0  0  0
   -4.1125    0.1802   12.1895 C   0  0  0  0  0  0  0  0  0  0  0  0
   -4.3554    1.1410   13.1464 C   0  0  0  0  0  0  0  0  0  0  0  0
   -4.3180   -0.6903    9.8672 C   0  0  0  0  0  0  0  0  0  0  0  0
   -2.9760   -0.5468    9.2044 C   0  0  0  0  0  0  0  0  0  0  0  0
   -2.7428   -1.7091    8.3676 N   0  0  0  0  0  4  0  0  0  0  0  0
   -1.4076   -1.7264    7.8115 C   0  0  0  0  0  0  0  0  0  0  0  0
   -1.2114   -2.9086    6.8717 C   0  0  1  0  0  0  0  0  0  0  0  0
    0.2437   -2.9873    6.5831 C   0  0  0  0  0  0  0  0  0  0  0  0
    0.7113   -2.8839    5.2929 C   0  0  0  0  0  0  0  0  0  0  0  0
    2.0589   -2.9568    5.0260 C   0  0  0  0  0  0  0  0  0  0  0  0
    2.9686   -3.1362    6.0572 C   0  0  0  0  0  0  0  0  0  0  0  0
    2.5061   -3.2404    7.3510 C   0  0  0  0  0  0  0  0  0  0  0  0
    1.1519   -3.1650    7.5991 C   0  0  0  0  0  0  0  0  0  0  0  0
    3.4268   -3.4224    8.3981 O   0  0  0  0  0  0  0  0  0  0  0  0
    4.3491   -3.2121    5.7948 O   0  0  0  0  0  0  0  0  0  0  0  0
   -1.6522   -4.0982    7.4412 O   0  0  0  0  0  0  0  0  0  0  0  0
   -1.9285   -0.4819   10.2725 C   0  0  0  0  0  0  0  0  0  0  0  0
   -2.9948    0.6934    8.3380 C   0  0  0  0  0  0  0  0  0  0  0  0
  1  2  1  0
  2  3  2  0
  3  4  1  0
  4  5  2  0
  5  6  1  0
  6  7  2  0
  5  8  1  0
  8  9  1  0
  9 10  1  0
 10 11  1  0
 11 12  1  0
 12 13  1  0
 13 14  2  0
 14 15  1  0
 15 16  2  0
 16 17  1  0
 17 18  2  0
 17 19  1  0
 16 20  1  0
 12 21  1  1
  9 22  1  0
  9 23  1  0
  7  2  1  0
 18 13  1  0
M  CHG  1  10   1
M  END
$$$$
