
     RDKit          3D

 23 24  0  0  0  0  0  0  0  0999 V2000
   -4.7461   -1.3352   14.7999 O   0  0  0  0  0  0  0  0  0  0  0  0
   -4.3123   -1.4372   13.4738 C   0  0  0  0  0  0  0  0  0  0  0  0
   -5.2031   -1.4804   12.4221 C   0  0  0  0  0  0  0  0  0  0  0  0
   -4.7575   -1.5803   11.1331 C   0  0  0  0  0  0  0  0  0  0  0  0
   -3.4054   -1.6431   10.8121 C   0  0  0  0  0  0  0  0  0  0  0  0
   -2.5229   -1.5991   11.8713 C   0  0  0  0  0  0  0  0  0  0  0  0
   -2.9681   -1.4985   13.1712 C   0  0  0  0  0  0  0  0  0  0  0  0
   -2.9457   -1.7500    9.4236 C   0  0  0  0  0  0  0  0  0  0  0  0
   -2.6997   -0.4168    8.7732 C   0  0  0  0  0  0  0  0  0  0  0  0
   -2.2747   -0.6377    7.4035 N   0  0  0  0  0  4  0  0  0  0  0  0
   -1.0834   -1.4542    7.3232 C   0  0  0  0  0  0  0  0  0  0  0  0
   -0.4824   -1.4255    5.9242 C   0  0  1  0  0  0  0  0  0  0  0  0
    0.5929   -2.4501    5.9007 C   0  0  0  0  0  0  0  0  0  0  0  0
    0.6243   -3.4142    4.9191 C   0  0  0  0  0  0  0  0  0  0  0  0
    1.6203   -4.3630    4.8978 C   0  0  0  0  0  0  0  0  0  0  0  0
    2.6104   -4.3614    5.8688 C   0  0  0  0  0  0  0  0  0  0  0  0
    2.5839   -3.3985    6.8541 C   0  0  0  0  0  0  0  0  0  0  0  0
    1.5778   -2.4558    6.8592 C   0  0  0  0  0  0  0  0  0  0  0  0
    3.5868   -3.3950    7.8397 O   0  0  0  0  0  0  0  0  0  0  0  0
    3.6335   -5.3275    5.8559 O   0  0  0  0  0  0  0  0  0  0  0  0
   -1.4333   -1.7060    4.9490 O   0  0  0  0  0  0  0  0  0  0  0  0
   -1.6108    0.2809    9.5280 C   0  0  0  0  0  0  0  0  0  0  0  0
   -3.9943    0.3664    8.7716 C   0  0  0  0  0  0  0  0  0  0  0  0
  1  2  1  0
  2  3  2  0
  3  4  1  0
  4  5  2  0
  5  6  1  0
  6  7  2  0
  5  8  1  0
  8  9  1  0
  9 10  1  0
 10 11  1  0
 11 12  1  0
 12 13  1  0
 13 14  2  0
 14 15  1  0
 15 16  2  0
 16 17  1  0
 17 18  2  0
 17 19  1  0
 16 20  1  0
 12 21  1  6
  9 22  1  0
  9 23  1  0
  7  2  1  0
 18 13  1  0
M  CHG  1  10   1
M  END
$$$$
