
     RDKit          3D

 23 24  0  0  0  0  0  0  0  0999 V2000
   -5.7051    0.3032   14.7129 O   0  0  0  0  0  0  0  0  0  0  0  0
   -5.1693    0.3057   13.4206 C   0  0  0  0  0  0  0  0  0  0  0  0
   -3.9862    0.9510   13.1288 C   0  0  0  0  0  0  0  0  0  0  0  0
   -3.4801    0.9410   11.8583 C   0  0  0  0  0  0  0  0  0  0  0  0
   -4.1161    0.2918   10.8052 C   0  0  0  0  0  0  0  0  0  0  0  0
   -5.2987   -0.3505   11.1078 C   0  0  0  0  0  0  0  0  0  0  0  0
   -5.8116   -0.3425   12.3864 C   0  0  0  0  0  0  0  0  0  0  0  0
   -3.5585    0.2916    9.4488 C   0  0  0  0  0  0  0  0  0  0  0  0
   -2.5860   -0.8290    9.2049 C   0  0  0  0  0  0  0  0  0  0  0  0
   -2.1707   -0.7915    7.8150 N   0  0  0  0  0  4  0  0  0  0  0  0
   -1.1399   -1.7635    7.5235 C   0  0  0  0  0  0  0  0  0  0  0  0
   -0.4897   -1.4970    6.1724 C   0  0  1  0  0  0  0  0  0  0  0  0
    0.5525   -2.5392    5.9875 C   0  0  0  0  0  0  0  0  0  0  0  0
    0.5726   -3.3206    4.8548 C   0  0  0  0  0  0  0  0  0  0  0  0
    1.5380   -4.2857    4.6840 C   0  0  0  0  0  0  0  0  0  0  0  0
    2.5082   -4.4856    5.6545 C   0  0  0  0  0  0  0  0  0  0  0  0
    2.4930   -3.7062    6.7906 C   0  0  0  0  0  0  0  0  0  0  0  0
    1.5176   -2.7439    6.9442 C   0  0  0  0  0  0  0  0  0  0  0  0
    3.4759   -3.9072    7.7759 O   0  0  0  0  0  0  0  0  0  0  0  0
    3.5000   -5.4701    5.4893 O   0  0  0  0  0  0  0  0  0  0  0  0
   -1.4144   -1.5544    5.1354 O   0  0  0  0  0  0  0  0  0  0  0  0
   -3.2823   -2.1251    9.4835 C   0  0  0  0  0  0  0  0  0  0  0  0
   -1.3769   -0.6212   10.0905 C   0  0  0  0  0  0  0  0  0  0  0  0
  1  2  1  0
  2  3  2  0
  3  4  1  0
  4  5  2  0
  5  6  1  0
  6  7  2  0
  5  8  1  0
  8  9  1  0
  9 10  1  0
 10 11  1  0
 11 12  1  0
 12 13  1  0
 13 14  2  0
 14 15  1  0
 15 16  2  0
 16 17  1  0
 17 18  2  0
 17 19  1  0
 16 20  1  0
 12 21  1  6
  9 22  1  0
  9 23  1  0
  7  2  1  0
 18 13  1  0
M  CHG  1  10   1
M  END
$$$$
