
     RDKit          3D

 23 24  0  0  0  0  0  0  0  0999 V2000
   -4.5364    1.7386   14.7535 O   0  0  0  0  0  0  0  0  0  0  0  0
   -3.9162    1.1361   13.6537 C   0  0  0  0  0  0  0  0  0  0  0  0
   -3.7832   -0.2331   13.5581 C   0  0  0  0  0  0  0  0  0  0  0  0
   -3.1734   -0.8015   12.4739 C   0  0  0  0  0  0  0  0  0  0  0  0
   -2.6609   -0.0471   11.4235 C   0  0  0  0  0  0  0  0  0  0  0  0
   -2.7991    1.3212   11.5291 C   0  0  0  0  0  0  0  0  0  0  0  0
   -3.4128    1.8974   12.6197 C   0  0  0  0  0  0  0  0  0  0  0  0
   -2.0100   -0.6740   10.2685 C   0  0  0  0  0  0  0  0  0  0  0  0
   -2.9826   -1.2008    9.2500 C   0  0  0  0  0  0  0  0  0  0  0  0
   -2.4182   -1.0139    7.9263 N   0  0  0  0  0  4  0  0  0  0  0  0
   -1.1913   -1.7577    7.7425 C   0  0  0  0  0  0  0  0  0  0  0  0
   -0.5592   -1.4628    6.3887 C   0  0  1  0  0  0  0  0  0  0  0  0
    0.5186   -2.4662    6.1936 C   0  0  0  0  0  0  0  0  0  0  0  0
    0.5699   -3.2298    5.0496 C   0  0  0  0  0  0  0  0  0  0  0  0
    1.5682   -4.1590    4.8693 C   0  0  0  0  0  0  0  0  0  0  0  0
    2.5406   -4.3401    5.8413 C   0  0  0  0  0  0  0  0  0  0  0  0
    2.4943   -3.5785    6.9886 C   0  0  0  0  0  0  0  0  0  0  0  0
    1.4861   -2.6522    7.1517 C   0  0  0  0  0  0  0  0  0  0  0  0
    3.4793   -3.7606    7.9754 O   0  0  0  0  0  0  0  0  0  0  0  0
    3.5660   -5.2880    5.6664 O   0  0  0  0  0  0  0  0  0  0  0  0
   -1.4874   -1.5493    5.3569 O   0  0  0  0  0  0  0  0  0  0  0  0
   -4.2544   -0.4188    9.3658 C   0  0  0  0  0  0  0  0  0  0  0  0
   -3.1891   -2.6790    9.4980 C   0  0  0  0  0  0  0  0  0  0  0  0
  1  2  1  0
  2  3  2  0
  3  4  1  0
  4  5  2  0
  5  6  1  0
  6  7  2  0
  5  8  1  0
  8  9  1  0
  9 10  1  0
 10 11  1  0
 11 12  1  0
 12 13  1  0
 13 14  2  0
 14 15  1  0
 15 16  2  0
 16 17  1  0
 17 18  2  0
 17 19  1  0
 16 20  1  0
 12 21  1  6
  9 22  1  0
  9 23  1  0
  7  2  1  0
 18 13  1  0
M  CHG  1  10   1
M  END
$$$$
