
     RDKit          3D

 23 24  0  0  0  0  0  0  0  0999 V2000
   -5.6949    3.0786    8.3239 O   0  0  0  0  0  0  0  0  0  0  0  0
   -5.2083    1.9343    8.9650 C   0  0  0  0  0  0  0  0  0  0  0  0
   -4.0472    1.9595    9.7083 C   0  0  0  0  0  0  0  0  0  0  0  0
   -3.5893    0.8291   10.3270 C   0  0  0  0  0  0  0  0  0  0  0  0
   -4.2545   -0.3898   10.2450 C   0  0  0  0  0  0  0  0  0  0  0  0
   -5.4148   -0.4041    9.4992 C   0  0  0  0  0  0  0  0  0  0  0  0
   -5.8791    0.7327    8.8745 C   0  0  0  0  0  0  0  0  0  0  0  0
   -3.7486   -1.5921   10.9152 C   0  0  0  0  0  0  0  0  0  0  0  0
   -2.7899   -2.3856   10.0713 C   0  0  0  0  0  0  0  0  0  0  0  0
   -2.1436   -1.4885    9.1315 N   0  0  0  0  0  4  0  0  0  0  0  0
   -1.1305   -2.1557    8.3435 C   0  0  0  0  0  0  0  0  0  0  0  0
   -0.6225   -1.2628    7.2193 C   0  0  1  0  0  0  0  0  0  0  0  0
    0.3772   -2.0584    6.4614 C   0  0  0  0  0  0  0  0  0  0  0  0
    0.2275   -2.2723    5.1101 C   0  0  0  0  0  0  0  0  0  0  0  0
    1.1535   -3.0092    4.4086 C   0  0  0  0  0  0  0  0  0  0  0  0
    2.2549   -3.5490    5.0556 C   0  0  0  0  0  0  0  0  0  0  0  0
    2.4099   -3.3381    6.4083 C   0  0  0  0  0  0  0  0  0  0  0  0
    1.4715   -2.5969    7.0947 C   0  0  0  0  0  0  0  0  0  0  0  0
    3.5261   -3.8845    7.0664 O   0  0  0  0  0  0  0  0  0  0  0  0
    3.2078   -4.3042    4.3471 O   0  0  0  0  0  0  0  0  0  0  0  0
   -1.6523   -0.8590    6.3766 O   0  0  0  0  0  0  0  0  0  0  0  0
   -3.5697   -3.4195    9.3196 C   0  0  0  0  0  0  0  0  0  0  0  0
   -1.7420   -2.9971   10.9753 C   0  0  0  0  0  0  0  0  0  0  0  0
  1  2  1  0
  2  3  2  0
  3  4  1  0
  4  5  2  0
  5  6  1  0
  6  7  2  0
  5  8  1  0
  8  9  1  0
  9 10  1  0
 10 11  1  0
 11 12  1  0
 12 13  1  0
 13 14  2  0
 14 15  1  0
 15 16  2  0
 16 17  1  0
 17 18  2  0
 17 19  1  0
 16 20  1  0
 12 21  1  6
  9 22  1  0
  9 23  1  0
  7  2  1  0
 18 13  1  0
M  CHG  1  10   1
M  END
$$$$
