
     RDKit          3D

 23 24  0  0  0  0  0  0  0  0999 V2000
   -1.3209    0.4795   15.0159 O   0  0  0  0  0  0  0  0  0  0  0  0
   -1.5158    0.4969   13.6307 C   0  0  0  0  0  0  0  0  0  0  0  0
   -2.6739    0.9915   13.0688 C   0  0  0  0  0  0  0  0  0  0  0  0
   -2.8438    0.9991   11.7119 C   0  0  0  0  0  0  0  0  0  0  0  0
   -1.8776    0.5178   10.8345 C   0  0  0  0  0  0  0  0  0  0  0  0
   -0.7232    0.0253   11.4068 C   0  0  0  0  0  0  0  0  0  0  0  0
   -0.5484    0.0161   12.7733 C   0  0  0  0  0  0  0  0  0  0  0  0
   -2.0772    0.5339    9.3818 C   0  0  0  0  0  0  0  0  0  0  0  0
   -2.9905   -0.5565    8.8939 C   0  0  0  0  0  0  0  0  0  0  0  0
   -2.5015   -1.0366    7.6149 N   0  0  0  0  0  4  0  0  0  0  0  0
   -1.1068   -1.4166    7.6678 C   0  0  0  0  0  0  0  0  0  0  0  0
   -0.6328   -1.9806    6.3349 C   0  0  1  0  0  0  0  0  0  0  0  0
    0.6947   -2.5998    6.5817 C   0  0  0  0  0  0  0  0  0  0  0  0
    0.9154   -3.3671    7.7027 C   0  0  0  0  0  0  0  0  0  0  0  0
    2.1449   -3.9403    7.9309 C   0  0  0  0  0  0  0  0  0  0  0  0
    3.1834   -3.7524    7.0313 C   0  0  0  0  0  0  0  0  0  0  0  0
    2.9683   -2.9851    5.9072 C   0  0  0  0  0  0  0  0  0  0  0  0
    1.7292   -2.4186    5.6954 C   0  0  0  0  0  0  0  0  0  0  0  0
    4.0199   -2.7933    4.9936 O   0  0  0  0  0  0  0  0  0  0  0  0
    4.4449   -4.3345    7.2555 O   0  0  0  0  0  0  0  0  0  0  0  0
   -1.5178   -2.9281    5.8324 O   0  0  0  0  0  0  0  0  0  0  0  0
   -4.3611    0.0208    8.7201 C   0  0  0  0  0  0  0  0  0  0  0  0
   -2.9648   -1.6919    9.8937 C   0  0  0  0  0  0  0  0  0  0  0  0
  1  2  1  0
  2  3  2  0
  3  4  1  0
  4  5  2  0
  5  6  1  0
  6  7  2  0
  5  8  1  0
  8  9  1  0
  9 10  1  0
 10 11  1  0
 11 12  1  0
 12 13  1  0
 13 14  2  0
 14 15  1  0
 15 16  2  0
 16 17  1  0
 17 18  2  0
 17 19  1  0
 16 20  1  0
 12 21  1  1
  9 22  1  0
  9 23  1  0
  7  2  1  0
 18 13  1  0
M  CHG  1  10   1
M  END
$$$$
