
     RDKit          3D

 23 24  0  0  0  0  0  0  0  0999 V2000
    4.1577   -5.4033    9.5065 O   0  0  0  0  0  0  0  0  0  0  0  0
    3.5186   -4.4477    8.7094 C   0  0  0  0  0  0  0  0  0  0  0  0
    4.0605   -4.0216    7.5153 C   0  0  0  0  0  0  0  0  0  0  0  0
    3.4188   -3.0863    6.7513 C   0  0  0  0  0  0  0  0  0  0  0  0
    2.2048   -2.5198    7.1260 C   0  0  0  0  0  0  0  0  0  0  0  0
    1.6715   -2.9529    8.3221 C   0  0  0  0  0  0  0  0  0  0  0  0
    2.3150   -3.8950    9.0943 C   0  0  0  0  0  0  0  0  0  0  0  0
    1.5309   -1.5178    6.2940 C   0  0  0  0  0  0  0  0  0  0  0  0
    0.2896   -2.0379    5.6233 C   0  0  0  0  0  0  0  0  0  0  0  0
   -0.7112   -2.3065    6.6390 N   0  0  0  0  0  4  0  0  0  0  0  0
   -0.8324   -1.2238    7.5904 C   0  0  0  0  0  0  0  0  0  0  0  0
   -2.2914   -0.9141    7.8983 C   0  0  1  0  0  0  0  0  0  0  0  0
   -2.3335   -0.4001    9.2914 C   0  0  0  0  0  0  0  0  0  0  0  0
   -3.1957   -0.9440   10.2160 C   0  0  0  0  0  0  0  0  0  0  0  0
   -3.2344   -0.4676   11.5060 C   0  0  0  0  0  0  0  0  0  0  0  0
   -2.4022    0.5714   11.8944 C   0  0  0  0  0  0  0  0  0  0  0  0
   -1.5369    1.1199   10.9730 C   0  0  0  0  0  0  0  0  0  0  0  0
   -1.5122    0.6293    9.6847 C   0  0  0  0  0  0  0  0  0  0  0  0
   -0.6921    2.1735   11.3647 O   0  0  0  0  0  0  0  0  0  0  0  0
   -2.4341    1.0659   13.2115 O   0  0  0  0  0  0  0  0  0  0  0  0
   -2.8134    0.0314    7.0224 O   0  0  0  0  0  0  0  0  0  0  0  0
    0.6362   -3.3105    4.9144 C   0  0  0  0  0  0  0  0  0  0  0  0
   -0.2318   -0.9754    4.6806 C   0  0  0  0  0  0  0  0  0  0  0  0
  1  2  1  0
  2  3  2  0
  3  4  1  0
  4  5  2  0
  5  6  1  0
  6  7  2  0
  5  8  1  0
  8  9  1  0
  9 10  1  0
 10 11  1  0
 11 12  1  0
 12 13  1  0
 13 14  2  0
 14 15  1  0
 15 16  2  0
 16 17  1  0
 17 18  2  0
 17 19  1  0
 16 20  1  0
 12 21  1  6
  9 22  1  0
  9 23  1  0
  7  2  1  0
 18 13  1  0
M  CHG  1  10   1
M  END
$$$$
