
     RDKit          3D

 23 24  0  0  0  0  0  0  0  0999 V2000
   -1.2181    3.0350   12.8611 O   0  0  0  0  0  0  0  0  0  0  0  0
   -1.8906    1.9485   12.2917 C   0  0  0  0  0  0  0  0  0  0  0  0
   -2.0746    0.7689   12.9816 C   0  0  0  0  0  0  0  0  0  0  0  0
   -2.7351   -0.2812   12.4059 C   0  0  0  0  0  0  0  0  0  0  0  0
   -3.2506   -0.2231   11.1152 C   0  0  0  0  0  0  0  0  0  0  0  0
   -3.0610    0.9612   10.4339 C   0  0  0  0  0  0  0  0  0  0  0  0
   -2.3962    2.0211   11.0106 C   0  0  0  0  0  0  0  0  0  0  0  0
   -3.9563   -1.3594   10.5139 C   0  0  0  0  0  0  0  0  0  0  0  0
   -3.0641   -2.2463    9.6902 C   0  0  0  0  0  0  0  0  0  0  0  0
   -2.2591   -1.4143    8.8154 N   0  0  0  0  0  4  0  0  0  0  0  0
   -1.2565   -2.1757    8.1031 C   0  0  0  0  0  0  0  0  0  0  0  0
   -0.4065   -1.2798    7.2118 C   0  0  1  0  0  0  0  0  0  0  0  0
    0.6864   -2.1288    6.6720 C   0  0  0  0  0  0  0  0  0  0  0  0
    0.6767   -2.5360    5.3574 C   0  0  0  0  0  0  0  0  0  0  0  0
    1.6890   -3.3222    4.8579 C   0  0  0  0  0  0  0  0  0  0  0  0
    2.7376   -3.7171    5.6750 C   0  0  0  0  0  0  0  0  0  0  0  0
    2.7526   -3.3125    6.9920 C   0  0  0  0  0  0  0  0  0  0  0  0
    1.7292   -2.5246    7.4748 C   0  0  0  0  0  0  0  0  0  0  0  0
    3.8149   -3.7117    7.8223 O   0  0  0  0  0  0  0  0  0  0  0  0
    3.7780   -4.5213    5.1737 O   0  0  0  0  0  0  0  0  0  0  0  0
   -1.1496   -0.7352    6.1702 O   0  0  0  0  0  0  0  0  0  0  0  0
   -3.9294   -3.1479    8.8652 C   0  0  0  0  0  0  0  0  0  0  0  0
   -2.1528   -3.0147   10.6222 C   0  0  0  0  0  0  0  0  0  0  0  0
  1  2  1  0
  2  3  2  0
  3  4  1  0
  4  5  2  0
  5  6  1  0
  6  7  2  0
  5  8  1  0
  8  9  1  0
  9 10  1  0
 10 11  1  0
 11 12  1  0
 12 13  1  0
 13 14  2  0
 14 15  1  0
 15 16  2  0
 16 17  1  0
 17 18  2  0
 17 19  1  0
 16 20  1  0
 12 21  1  6
  9 22  1  0
  9 23  1  0
  7  2  1  0
 18 13  1  0
M  CHG  1  10   1
M  END
$$$$
