
     RDKit          3D

 23 24  0  0  0  0  0  0  0  0999 V2000
   -1.7179    2.9807   14.2148 O   0  0  0  0  0  0  0  0  0  0  0  0
   -1.8909    1.8880   13.3586 C   0  0  0  0  0  0  0  0  0  0  0  0
   -2.9154    0.9827   13.5382 C   0  0  0  0  0  0  0  0  0  0  0  0
   -3.0664   -0.0787   12.6892 C   0  0  0  0  0  0  0  0  0  0  0  0
   -2.2122   -0.3042   11.6147 C   0  0  0  0  0  0  0  0  0  0  0  0
   -1.1909    0.6071   11.4440 C   0  0  0  0  0  0  0  0  0  0  0  0
   -1.0356    1.6776   12.2972 C   0  0  0  0  0  0  0  0  0  0  0  0
   -2.3894   -1.4481   10.7144 C   0  0  0  0  0  0  0  0  0  0  0  0
   -3.0343   -1.0822    9.4062 C   0  0  0  0  0  0  0  0  0  0  0  0
   -2.0340   -0.4775    8.5464 N   0  0  0  0  0  4  0  0  0  0  0  0
   -1.2140   -1.4649    7.8793 C   0  0  0  0  0  0  0  0  0  0  0  0
   -0.2205   -0.8120    6.9276 C   0  0  1  0  0  0  0  0  0  0  0  0
    0.7370   -1.8713    6.5179 C   0  0  0  0  0  0  0  0  0  0  0  0
    0.6498   -2.4556    5.2749 C   0  0  0  0  0  0  0  0  0  0  0  0
    1.5367   -3.4367    4.8959 C   0  0  0  0  0  0  0  0  0  0  0  0
    2.5348   -3.8523    5.7643 C   0  0  0  0  0  0  0  0  0  0  0  0
    2.6269   -3.2708    7.0101 C   0  0  0  0  0  0  0  0  0  0  0  0
    1.7291   -2.2891    7.3723 C   0  0  0  0  0  0  0  0  0  0  0  0
    3.6383   -3.6907    7.8922 O   0  0  0  0  0  0  0  0  0  0  0  0
    3.4470   -4.8550    5.3863 O   0  0  0  0  0  0  0  0  0  0  0  0
   -0.8523   -0.2785    5.8096 O   0  0  0  0  0  0  0  0  0  0  0  0
   -4.1231   -0.0912    9.6797 C   0  0  0  0  0  0  0  0  0  0  0  0
   -3.5533   -2.3446    8.7533 C   0  0  0  0  0  0  0  0  0  0  0  0
  1  2  1  0
  2  3  2  0
  3  4  1  0
  4  5  2  0
  5  6  1  0
  6  7  2  0
  5  8  1  0
  8  9  1  0
  9 10  1  0
 10 11  1  0
 11 12  1  0
 12 13  1  0
 13 14  2  0
 14 15  1  0
 15 16  2  0
 16 17  1  0
 17 18  2  0
 17 19  1  0
 16 20  1  0
 12 21  1  6
  9 22  1  0
  9 23  1  0
  7  2  1  0
 18 13  1  0
M  CHG  1  10   1
M  END
$$$$
