
     RDKit          3D

 23 24  0  0  0  0  0  0  0  0999 V2000
   -2.9607    1.4194   15.1878 O   0  0  0  0  0  0  0  0  0  0  0  0
   -2.6533    1.1371   13.8526 C   0  0  0  0  0  0  0  0  0  0  0  0
   -3.3705    1.6893   12.8124 C   0  0  0  0  0  0  0  0  0  0  0  0
   -3.0530    1.3999   11.5140 C   0  0  0  0  0  0  0  0  0  0  0  0
   -2.0081    0.5477   11.1719 C   0  0  0  0  0  0  0  0  0  0  0  0
   -1.2972    0.0008   12.2198 C   0  0  0  0  0  0  0  0  0  0  0  0
   -1.6141    0.2900   13.5290 C   0  0  0  0  0  0  0  0  0  0  0  0
   -1.6820    0.2487    9.7737 C   0  0  0  0  0  0  0  0  0  0  0  0
   -2.5399   -0.8345    9.1806 C   0  0  0  0  0  0  0  0  0  0  0  0
   -2.1771   -1.0053    7.7861 N   0  0  0  0  0  4  0  0  0  0  0  0
   -0.8192   -1.4772    7.6258 C   0  0  0  0  0  0  0  0  0  0  0  0
   -0.4168   -1.5267    6.1578 C   0  0  1  0  0  0  0  0  0  0  0  0
    0.8294   -2.3319    6.0840 C   0  0  0  0  0  0  0  0  0  0  0  0
    1.2761   -2.8275    4.8804 C   0  0  0  0  0  0  0  0  0  0  0  0
    2.4302   -3.5732    4.8125 C   0  0  0  0  0  0  0  0  0  0  0  0
    3.1626   -3.8369    5.9602 C   0  0  0  0  0  0  0  0  0  0  0  0
    2.7201   -3.3432    7.1681 C   0  0  0  0  0  0  0  0  0  0  0  0
    1.5611   -2.5979    7.2165 C   0  0  0  0  0  0  0  0  0  0  0  0
    3.4611   -3.6094    8.3331 O   0  0  0  0  0  0  0  0  0  0  0  0
    4.3444   -4.5985    5.9014 O   0  0  0  0  0  0  0  0  0  0  0  0
   -1.4077   -2.1038    5.3712 O   0  0  0  0  0  0  0  0  0  0  0  0
   -3.9714   -0.4055    9.2755 C   0  0  0  0  0  0  0  0  0  0  0  0
   -2.2732   -2.1245    9.9250 C   0  0  0  0  0  0  0  0  0  0  0  0
  1  2  1  0
  2  3  2  0
  3  4  1  0
  4  5  2  0
  5  6  1  0
  6  7  2  0
  5  8  1  0
  8  9  1  0
  9 10  1  0
 10 11  1  0
 11 12  1  0
 12 13  1  0
 13 14  2  0
 14 15  1  0
 15 16  2  0
 16 17  1  0
 17 18  2  0
 17 19  1  0
 16 20  1  0
 12 21  1  6
  9 22  1  0
  9 23  1  0
  7  2  1  0
 18 13  1  0
M  CHG  1  10   1
M  END
$$$$
