
     RDKit          3D

 23 24  0  0  0  0  0  0  0  0999 V2000
    1.2544   -3.9030   13.3595 O   0  0  0  0  0  0  0  0  0  0  0  0
    0.2847   -3.5803   12.4042 C   0  0  0  0  0  0  0  0  0  0  0  0
   -0.9589   -3.1073   12.7662 C   0  0  0  0  0  0  0  0  0  0  0  0
   -1.8922   -2.7978   11.8158 C   0  0  0  0  0  0  0  0  0  0  0  0
   -1.6476   -2.9390   10.4537 C   0  0  0  0  0  0  0  0  0  0  0  0
   -0.4008   -3.4129   10.1024 C   0  0  0  0  0  0  0  0  0  0  0  0
    0.5420   -3.7257   11.0570 C   0  0  0  0  0  0  0  0  0  0  0  0
   -2.6608   -2.6022    9.4483 C   0  0  0  0  0  0  0  0  0  0  0  0
   -2.6884   -1.1403    9.0972 C   0  0  0  0  0  0  0  0  0  0  0  0
   -2.2839   -0.9860    7.7122 N   0  0  0  0  0  4  0  0  0  0  0  0
   -1.0662   -1.7068    7.4122 C   0  0  0  0  0  0  0  0  0  0  0  0
   -0.6049   -1.4497    5.9837 C   0  0  1  0  0  0  0  0  0  0  0  0
    0.5094   -2.3956    5.7186 C   0  0  0  0  0  0  0  0  0  0  0  0
    0.5209   -3.1670    4.5789 C   0  0  0  0  0  0  0  0  0  0  0  0
    1.5530   -4.0429    4.3338 C   0  0  0  0  0  0  0  0  0  0  0  0
    2.6004   -4.1613    5.2350 C   0  0  0  0  0  0  0  0  0  0  0  0
    2.5942   -3.3914    6.3777 C   0  0  0  0  0  0  0  0  0  0  0  0
    1.5512   -2.5191    6.6064 C   0  0  0  0  0  0  0  0  0  0  0  0
    3.6552   -3.5099    7.2928 O   0  0  0  0  0  0  0  0  0  0  0  0
    3.6609   -5.0543    4.9935 O   0  0  0  0  0  0  0  0  0  0  0  0
   -1.6314   -1.6491    5.0671 O   0  0  0  0  0  0  0  0  0  0  0  0
   -1.7167   -0.4252    9.9841 C   0  0  0  0  0  0  0  0  0  0  0  0
   -4.1034   -0.6303    9.2614 C   0  0  0  0  0  0  0  0  0  0  0  0
  1  2  1  0
  2  3  2  0
  3  4  1  0
  4  5  2  0
  5  6  1  0
  6  7  2  0
  5  8  1  0
  8  9  1  0
  9 10  1  0
 10 11  1  0
 11 12  1  0
 12 13  1  0
 13 14  2  0
 14 15  1  0
 15 16  2  0
 16 17  1  0
 17 18  2  0
 17 19  1  0
 16 20  1  0
 12 21  1  6
  9 22  1  0
  9 23  1  0
  7  2  1  0
 18 13  1  0
M  CHG  1  10   1
M  END
$$$$
