
     RDKit          3D

 23 24  0  0  0  0  0  0  0  0999 V2000
   -5.9625    0.0724   14.5646 O   0  0  0  0  0  0  0  0  0  0  0  0
   -5.3755    0.1260   13.2959 C   0  0  0  0  0  0  0  0  0  0  0  0
   -4.3801    1.0322   12.9966 C   0  0  0  0  0  0  0  0  0  0  0  0
   -3.8197    1.0676   11.7497 C   0  0  0  0  0  0  0  0  0  0  0  0
   -4.2127    0.2085   10.7286 C   0  0  0  0  0  0  0  0  0  0  0  0
   -5.2089   -0.6938   11.0384 C   0  0  0  0  0  0  0  0  0  0  0  0
   -5.7758   -0.7325   12.2935 C   0  0  0  0  0  0  0  0  0  0  0  0
   -3.6004    0.2608    9.3970 C   0  0  0  0  0  0  0  0  0  0  0  0
   -2.4787   -0.7245    9.2181 C   0  0  0  0  0  0  0  0  0  0  0  0
   -2.1375   -0.7915    7.8094 N   0  0  0  0  0  4  0  0  0  0  0  0
   -0.9707   -1.6109    7.5654 C   0  0  0  0  0  0  0  0  0  0  0  0
   -0.5273   -1.5288    6.1108 C   0  0  1  0  0  0  0  0  0  0  0  0
    0.5952   -2.4887    5.9522 C   0  0  0  0  0  0  0  0  0  0  0  0
    0.8154   -3.1209    4.7496 C   0  0  0  0  0  0  0  0  0  0  0  0
    1.8550   -4.0099    4.6032 C   0  0  0  0  0  0  0  0  0  0  0  0
    2.6990   -4.2827    5.6692 C   0  0  0  0  0  0  0  0  0  0  0  0
    2.4834   -3.6528    6.8755 C   0  0  0  0  0  0  0  0  0  0  0  0
    1.4363   -2.7648    7.0034 C   0  0  0  0  0  0  0  0  0  0  0  0
    3.3380   -3.9279    7.9578 O   0  0  0  0  0  0  0  0  0  0  0  0
    3.7653   -5.1904    5.5297 O   0  0  0  0  0  0  0  0  0  0  0  0
   -1.5607   -1.8512    5.2381 O   0  0  0  0  0  0  0  0  0  0  0  0
   -2.9536   -2.0668    9.6816 C   0  0  0  0  0  0  0  0  0  0  0  0
   -1.2774   -0.2362    9.9977 C   0  0  0  0  0  0  0  0  0  0  0  0
  1  2  1  0
  2  3  2  0
  3  4  1  0
  4  5  2  0
  5  6  1  0
  6  7  2  0
  5  8  1  0
  8  9  1  0
  9 10  1  0
 10 11  1  0
 11 12  1  0
 12 13  1  0
 13 14  2  0
 14 15  1  0
 15 16  2  0
 16 17  1  0
 17 18  2  0
 17 19  1  0
 16 20  1  0
 12 21  1  6
  9 22  1  0
  9 23  1  0
  7  2  1  0
 18 13  1  0
M  CHG  1  10   1
M  END
$$$$
