
     RDKit          3D

 23 24  0  0  0  0  0  0  0  0999 V2000
   -4.4320    2.0018   14.7589 O   0  0  0  0  0  0  0  0  0  0  0  0
   -3.8292    1.4568   13.6201 C   0  0  0  0  0  0  0  0  0  0  0  0
   -3.5448    2.2275   12.5126 C   0  0  0  0  0  0  0  0  0  0  0  0
   -2.9551    1.6743   11.4096 C   0  0  0  0  0  0  0  0  0  0  0  0
   -2.6137    0.3276   11.3404 C   0  0  0  0  0  0  0  0  0  0  0  0
   -2.9025   -0.4342   12.4534 C   0  0  0  0  0  0  0  0  0  0  0  0
   -3.4964    0.1195   13.5664 C   0  0  0  0  0  0  0  0  0  0  0  0
   -1.9817   -0.2484   10.1490 C   0  0  0  0  0  0  0  0  0  0  0  0
   -2.9507   -0.5139    9.0303 C   0  0  0  0  0  0  0  0  0  0  0  0
   -2.6397   -1.8026    8.4402 N   0  0  0  0  0  4  0  0  0  0  0  0
   -1.3550   -1.8065    7.7755 C   0  0  0  0  0  0  0  0  0  0  0  0
   -1.0591   -3.1605    7.1443 C   0  0  1  0  0  0  0  0  0  0  0  0
    0.3779   -3.1507    6.7679 C   0  0  0  0  0  0  0  0  0  0  0  0
    0.7622   -2.9254    5.4657 C   0  0  0  0  0  0  0  0  0  0  0  0
    2.0931   -2.9165    5.1176 C   0  0  0  0  0  0  0  0  0  0  0  0
    3.0699   -3.1354    6.0773 C   0  0  0  0  0  0  0  0  0  0  0  0
    2.6909   -3.3615    7.3826 C   0  0  0  0  0  0  0  0  0  0  0  0
    1.3522   -3.3667    7.7127 C   0  0  0  0  0  0  0  0  0  0  0  0
    3.6797   -3.5836    8.3575 O   0  0  0  0  0  0  0  0  0  0  0  0
    4.4339   -3.1283    5.7315 O   0  0  0  0  0  0  0  0  0  0  0  0
   -1.3173   -4.2063    8.0236 O   0  0  0  0  0  0  0  0  0  0  0  0
   -2.7855    0.5602    8.0002 C   0  0  0  0  0  0  0  0  0  0  0  0
   -4.3507   -0.5544    9.6027 C   0  0  0  0  0  0  0  0  0  0  0  0
  1  2  1  0
  2  3  2  0
  3  4  1  0
  4  5  2  0
  5  6  1  0
  6  7  2  0
  5  8  1  0
  8  9  1  0
  9 10  1  0
 10 11  1  0
 11 12  1  0
 12 13  1  0
 13 14  2  0
 14 15  1  0
 15 16  2  0
 16 17  1  0
 17 18  2  0
 17 19  1  0
 16 20  1  0
 12 21  1  1
  9 22  1  0
  9 23  1  0
  7  2  1  0
 18 13  1  0
M  CHG  1  10   1
M  END
$$$$
