
     RDKit          3D

 23 24  0  0  0  0  0  0  0  0999 V2000
   -2.5611    0.2699   15.2857 O   0  0  0  0  0  0  0  0  0  0  0  0
   -2.4812    0.2468   13.8892 C   0  0  0  0  0  0  0  0  0  0  0  0
   -1.4270   -0.3540   13.2343 C   0  0  0  0  0  0  0  0  0  0  0  0
   -1.3686   -0.3652   11.8681 C   0  0  0  0  0  0  0  0  0  0  0  0
   -2.3500    0.2176   11.0729 C   0  0  0  0  0  0  0  0  0  0  0  0
   -3.4000    0.8158   11.7379 C   0  0  0  0  0  0  0  0  0  0  0  0
   -3.4622    0.8291   13.1141 C   0  0  0  0  0  0  0  0  0  0  0  0
   -2.2708    0.1960    9.6087 C   0  0  0  0  0  0  0  0  0  0  0  0
   -3.1181   -0.8766    8.9821 C   0  0  0  0  0  0  0  0  0  0  0  0
   -2.6255   -1.1364    7.6422 N   0  0  0  0  0  4  0  0  0  0  0  0
   -1.2911   -1.6945    7.6462 C   0  0  0  0  0  0  0  0  0  0  0  0
   -0.7108   -1.7596    6.2397 C   0  0  1  0  0  0  0  0  0  0  0  0
    0.4759   -2.6506    6.3087 C   0  0  0  0  0  0  0  0  0  0  0  0
    0.7432   -3.5452    5.2976 C   0  0  0  0  0  0  0  0  0  0  0  0
    1.8422   -4.3702    5.3619 C   0  0  0  0  0  0  0  0  0  0  0  0
    2.6994   -4.3118    6.4504 C   0  0  0  0  0  0  0  0  0  0  0  0
    2.4367   -3.4180    7.4656 C   0  0  0  0  0  0  0  0  0  0  0  0
    1.3304   -2.5992    7.3837 C   0  0  0  0  0  0  0  0  0  0  0  0
    3.3046   -3.3571    8.5703 O   0  0  0  0  0  0  0  0  0  0  0  0
    3.8263   -5.1514    6.5256 O   0  0  0  0  0  0  0  0  0  0  0  0
   -1.6319   -2.2578    5.3249 O   0  0  0  0  0  0  0  0  0  0  0  0
   -4.5283   -0.3788    8.9083 C   0  0  0  0  0  0  0  0  0  0  0  0
   -2.9932   -2.1367    9.8104 C   0  0  0  0  0  0  0  0  0  0  0  0
  1  2  1  0
  2  3  2  0
  3  4  1  0
  4  5  2  0
  5  6  1  0
  6  7  2  0
  5  8  1  0
  8  9  1  0
  9 10  1  0
 10 11  1  0
 11 12  1  0
 12 13  1  0
 13 14  2  0
 14 15  1  0
 15 16  2  0
 16 17  1  0
 17 18  2  0
 17 19  1  0
 16 20  1  0
 12 21  1  6
  9 22  1  0
  9 23  1  0
  7  2  1  0
 18 13  1  0
M  CHG  1  10   1
M  END
$$$$
