
     RDKit          3D

 23 24  0  0  0  0  0  0  0  0999 V2000
    1.6820   -0.1411   12.8645 O   0  0  0  0  0  0  0  0  0  0  0  0
    0.5740   -0.5340   12.1061 C   0  0  0  0  0  0  0  0  0  0  0  0
    0.3967   -0.1050   10.8077 C   0  0  0  0  0  0  0  0  0  0  0  0
   -0.6940   -0.5013   10.0840 C   0  0  0  0  0  0  0  0  0  0  0  0
   -1.6705   -1.3443   10.6044 C   0  0  0  0  0  0  0  0  0  0  0  0
   -1.4836   -1.7675   11.9038 C   0  0  0  0  0  0  0  0  0  0  0  0
   -0.3861   -1.3704   12.6359 C   0  0  0  0  0  0  0  0  0  0  0  0
   -2.8338   -1.7589    9.8134 C   0  0  0  0  0  0  0  0  0  0  0  0
   -3.2598   -0.7344    8.7986 C   0  0  0  0  0  0  0  0  0  0  0  0
   -2.5571   -0.9901    7.5550 N   0  0  0  0  0  4  0  0  0  0  0  0
   -1.2892   -1.6531    7.7670 C   0  0  0  0  0  0  0  0  0  0  0  0
   -0.7230   -2.2012    6.4638 C   0  0  1  0  0  0  0  0  0  0  0  0
    0.5436   -2.8968    6.8081 C   0  0  0  0  0  0  0  0  0  0  0  0
    0.6575   -3.6119    7.9784 C   0  0  0  0  0  0  0  0  0  0  0  0
    1.8308   -4.2558    8.2969 C   0  0  0  0  0  0  0  0  0  0  0  0
    2.9193   -4.1932    7.4401 C   0  0  0  0  0  0  0  0  0  0  0  0
    2.8110   -3.4786    6.2669 C   0  0  0  0  0  0  0  0  0  0  0  0
    1.6271   -2.8398    5.9646 C   0  0  0  0  0  0  0  0  0  0  0  0
    3.9135   -3.4138    5.3966 O   0  0  0  0  0  0  0  0  0  0  0  0
    4.1238   -4.8483    7.7566 O   0  0  0  0  0  0  0  0  0  0  0  0
   -1.6041   -3.0853    5.8508 O   0  0  0  0  0  0  0  0  0  0  0  0
   -2.8867    0.6212    9.3137 C   0  0  0  0  0  0  0  0  0  0  0  0
   -4.7483   -0.8742    8.5660 C   0  0  0  0  0  0  0  0  0  0  0  0
  1  2  1  0
  2  3  2  0
  3  4  1  0
  4  5  2  0
  5  6  1  0
  6  7  2  0
  5  8  1  0
  8  9  1  0
  9 10  1  0
 10 11  1  0
 11 12  1  0
 12 13  1  0
 13 14  2  0
 14 15  1  0
 15 16  2  0
 16 17  1  0
 17 18  2  0
 17 19  1  0
 16 20  1  0
 12 21  1  1
  9 22  1  0
  9 23  1  0
  7  2  1  0
 18 13  1  0
M  CHG  1  10   1
M  END
$$$$
