
     RDKit          3D

 23 24  0  0  0  0  0  0  0  0999 V2000
   -6.3403   -1.2952   14.3399 O   0  0  0  0  0  0  0  0  0  0  0  0
   -5.7031   -1.0151   13.1265 C   0  0  0  0  0  0  0  0  0  0  0  0
   -5.2616   -2.0200   12.2919 C   0  0  0  0  0  0  0  0  0  0  0  0
   -4.6409   -1.7239   11.1098 C   0  0  0  0  0  0  0  0  0  0  0  0
   -4.4221   -0.4168   10.6870 C   0  0  0  0  0  0  0  0  0  0  0  0
   -4.8675    0.5807   11.5292 C   0  0  0  0  0  0  0  0  0  0  0  0
   -5.4932    0.2863   12.7207 C   0  0  0  0  0  0  0  0  0  0  0  0
   -3.7545   -0.1180    9.4159 C   0  0  0  0  0  0  0  0  0  0  0  0
   -2.4875   -0.9011    9.2101 C   0  0  0  0  0  0  0  0  0  0  0  0
   -2.0952   -0.7951    7.8171 N   0  0  0  0  0  4  0  0  0  0  0  0
   -0.9020   -1.5583    7.5231 C   0  0  0  0  0  0  0  0  0  0  0  0
   -0.4510   -1.3532    6.0831 C   0  0  1  0  0  0  0  0  0  0  0  0
    0.5761   -2.3900    5.8060 C   0  0  0  0  0  0  0  0  0  0  0  0
    0.4858   -3.1884    4.6885 C   0  0  0  0  0  0  0  0  0  0  0  0
    1.4371   -4.1485    4.4324 C   0  0  0  0  0  0  0  0  0  0  0  0
    2.5045   -4.3262    5.2997 C   0  0  0  0  0  0  0  0  0  0  0  0
    2.6000   -3.5298    6.4200 C   0  0  0  0  0  0  0  0  0  0  0  0
    1.6370   -2.5728    6.6602 C   0  0  0  0  0  0  0  0  0  0  0  0
    3.6815   -3.7083    7.3008 O   0  0  0  0  0  0  0  0  0  0  0  0
    3.4829   -5.3055    5.0466 O   0  0  0  0  0  0  0  0  0  0  0  0
   -1.5093   -1.4757    5.1893 O   0  0  0  0  0  0  0  0  0  0  0  0
   -2.7613   -2.3348    9.5444 C   0  0  0  0  0  0  0  0  0  0  0  0
   -1.4028   -0.3027   10.0787 C   0  0  0  0  0  0  0  0  0  0  0  0
  1  2  1  0
  2  3  2  0
  3  4  1  0
  4  5  2  0
  5  6  1  0
  6  7  2  0
  5  8  1  0
  8  9  1  0
  9 10  1  0
 10 11  1  0
 11 12  1  0
 12 13  1  0
 13 14  2  0
 14 15  1  0
 15 16  2  0
 16 17  1  0
 17 18  2  0
 17 19  1  0
 16 20  1  0
 12 21  1  6
  9 22  1  0
  9 23  1  0
  7  2  1  0
 18 13  1  0
M  CHG  1  10   1
M  END
$$$$
