
     RDKit          3D

 23 24  0  0  0  0  0  0  0  0999 V2000
    2.3323   -0.7416   13.4677 O   0  0  0  0  0  0  0  0  0  0  0  0
    1.1659   -0.6601   12.6995 C   0  0  0  0  0  0  0  0  0  0  0  0
    1.0287    0.2669   11.6880 C   0  0  0  0  0  0  0  0  0  0  0  0
   -0.1204    0.3294   10.9492 C   0  0  0  0  0  0  0  0  0  0  0  0
   -1.1984   -0.5218   11.1696 C   0  0  0  0  0  0  0  0  0  0  0  0
   -1.0508   -1.4451   12.1837 C   0  0  0  0  0  0  0  0  0  0  0  0
    0.1053   -1.5111   12.9301 C   0  0  0  0  0  0  0  0  0  0  0  0
   -2.4232   -0.4403   10.3672 C   0  0  0  0  0  0  0  0  0  0  0  0
   -2.3985   -1.3246    9.1513 C   0  0  0  0  0  0  0  0  0  0  0  0
   -1.5244   -0.7279    8.1586 N   0  0  0  0  0  4  0  0  0  0  0  0
   -1.2842   -1.6097    7.0374 C   0  0  0  0  0  0  0  0  0  0  0  0
   -0.3085   -0.9932    6.0437 C   0  0  1  0  0  0  0  0  0  0  0  0
    0.6819   -2.0482    5.7080 C   0  0  0  0  0  0  0  0  0  0  0  0
    0.5608   -2.7841    4.5513 C   0  0  0  0  0  0  0  0  0  0  0  0
    1.4783   -3.7611    4.2409 C   0  0  0  0  0  0  0  0  0  0  0  0
    2.5421   -4.0191    5.0922 C   0  0  0  0  0  0  0  0  0  0  0  0
    2.6684   -3.2855    6.2517 C   0  0  0  0  0  0  0  0  0  0  0  0
    1.7391   -2.3104    6.5461 C   0  0  0  0  0  0  0  0  0  0  0  0
    3.7463   -3.5455    7.1164 O   0  0  0  0  0  0  0  0  0  0  0  0
    3.4860   -5.0163    4.7838 O   0  0  0  0  0  0  0  0  0  0  0  0
   -0.9534   -0.5570    4.8915 O   0  0  0  0  0  0  0  0  0  0  0  0
   -3.7898   -1.4111    8.6044 C   0  0  0  0  0  0  0  0  0  0  0  0
   -1.8491   -2.6773    9.5483 C   0  0  0  0  0  0  0  0  0  0  0  0
  1  2  1  0
  2  3  2  0
  3  4  1  0
  4  5  2  0
  5  6  1  0
  6  7  2  0
  5  8  1  0
  8  9  1  0
  9 10  1  0
 10 11  1  0
 11 12  1  0
 12 13  1  0
 13 14  2  0
 14 15  1  0
 15 16  2  0
 16 17  1  0
 17 18  2  0
 17 19  1  0
 16 20  1  0
 12 21  1  6
  9 22  1  0
  9 23  1  0
  7  2  1  0
 18 13  1  0
M  CHG  1  10   1
M  END
$$$$
