
     RDKit          3D

 23 24  0  0  0  0  0  0  0  0999 V2000
   -6.1979    2.0844   13.8063 O   0  0  0  0  0  0  0  0  0  0  0  0
   -5.2263    1.6039   12.9219 C   0  0  0  0  0  0  0  0  0  0  0  0
   -4.3200    0.6354   13.2988 C   0  0  0  0  0  0  0  0  0  0  0  0
   -3.3782    0.1796   12.4182 C   0  0  0  0  0  0  0  0  0  0  0  0
   -3.2801    0.6566   11.1151 C   0  0  0  0  0  0  0  0  0  0  0  0
   -4.1913    1.6251   10.7484 C   0  0  0  0  0  0  0  0  0  0  0  0
   -5.1414    2.0866   11.6328 C   0  0  0  0  0  0  0  0  0  0  0  0
   -2.2634    0.1561   10.1843 C   0  0  0  0  0  0  0  0  0  0  0  0
   -2.7358   -1.0057    9.3547 C   0  0  0  0  0  0  0  0  0  0  0  0
   -2.3353   -0.7881    7.9771 N   0  0  0  0  0  4  0  0  0  0  0  0
   -1.1189   -1.4949    7.6407 C   0  0  0  0  0  0  0  0  0  0  0  0
   -0.7809   -1.3487    6.1629 C   0  0  1  0  0  0  0  0  0  0  0  0
    0.4035   -2.2087    5.9092 C   0  0  0  0  0  0  0  0  0  0  0  0
    0.7160   -2.6163    4.6323 C   0  0  0  0  0  0  0  0  0  0  0  0
    1.8129   -3.4127    4.3978 C   0  0  0  0  0  0  0  0  0  0  0  0
    2.6223   -3.8177    5.4485 C   0  0  0  0  0  0  0  0  0  0  0  0
    2.3142   -3.4127    6.7290 C   0  0  0  0  0  0  0  0  0  0  0  0
    1.2108   -2.6145    6.9447 C   0  0  0  0  0  0  0  0  0  0  0  0
    3.1335   -3.8221    7.7959 O   0  0  0  0  0  0  0  0  0  0  0  0
    3.7466   -4.6323    5.2192 O   0  0  0  0  0  0  0  0  0  0  0  0
   -1.8400   -1.7397    5.3510 O   0  0  0  0  0  0  0  0  0  0  0  0
   -4.2297   -1.0659    9.4372 C   0  0  0  0  0  0  0  0  0  0  0  0
   -2.0777   -2.2670    9.8701 C   0  0  0  0  0  0  0  0  0  0  0  0
  1  2  1  0
  2  3  2  0
  3  4  1  0
  4  5  2  0
  5  6  1  0
  6  7  2  0
  5  8  1  0
  8  9  1  0
  9 10  1  0
 10 11  1  0
 11 12  1  0
 12 13  1  0
 13 14  2  0
 14 15  1  0
 15 16  2  0
 16 17  1  0
 17 18  2  0
 17 19  1  0
 16 20  1  0
 12 21  1  6
  9 22  1  0
  9 23  1  0
  7  2  1  0
 18 13  1  0
M  CHG  1  10   1
M  END
$$$$
