
     RDKit          3D

 23 24  0  0  0  0  0  0  0  0999 V2000
   -2.9942   -4.1947   13.8545 O   0  0  0  0  0  0  0  0  0  0  0  0
   -2.6551   -3.3164   12.8198 C   0  0  0  0  0  0  0  0  0  0  0  0
   -1.8373   -3.7045   11.7796 C   0  0  0  0  0  0  0  0  0  0  0  0
   -1.5184   -2.8296   10.7781 C   0  0  0  0  0  0  0  0  0  0  0  0
   -1.9907   -1.5215   10.7493 C   0  0  0  0  0  0  0  0  0  0  0  0
   -2.8078   -1.1435   11.7943 C   0  0  0  0  0  0  0  0  0  0  0  0
   -3.1313   -2.0220   12.8050 C   0  0  0  0  0  0  0  0  0  0  0  0
   -1.6381   -0.5970    9.6669 C   0  0  0  0  0  0  0  0  0  0  0  0
   -2.7420   -0.4055    8.6640 C   0  0  0  0  0  0  0  0  0  0  0  0
   -2.1880   -0.5408    7.3297 N   0  0  0  0  0  4  0  0  0  0  0  0
   -0.9872   -1.3471    7.3128 C   0  0  0  0  0  0  0  0  0  0  0  0
   -0.2471   -1.2155    5.9883 C   0  0  1  0  0  0  0  0  0  0  0  0
    0.8652   -2.1996    6.0217 C   0  0  0  0  0  0  0  0  0  0  0  0
    0.9846   -3.1595    5.0427 C   0  0  0  0  0  0  0  0  0  0  0  0
    2.0148   -4.0706    5.0740 C   0  0  0  0  0  0  0  0  0  0  0  0
    2.9511   -4.0347    6.0963 C   0  0  0  0  0  0  0  0  0  0  0  0
    2.8366   -3.0758    7.0792 C   0  0  0  0  0  0  0  0  0  0  0  0
    1.7973   -2.1710    7.0312 C   0  0  0  0  0  0  0  0  0  0  0  0
    3.7849   -3.0376    8.1168 O   0  0  0  0  0  0  0  0  0  0  0  0
    4.0087   -4.9621    6.1374 O   0  0  0  0  0  0  0  0  0  0  0  0
   -1.0805   -1.4706    4.9048 O   0  0  0  0  0  0  0  0  0  0  0  0
   -3.2997    0.9735    8.8360 C   0  0  0  0  0  0  0  0  0  0  0  0
   -3.7840   -1.4810    8.8807 C   0  0  0  0  0  0  0  0  0  0  0  0
  1  2  1  0
  2  3  2  0
  3  4  1  0
  4  5  2  0
  5  6  1  0
  6  7  2  0
  5  8  1  0
  8  9  1  0
  9 10  1  0
 10 11  1  0
 11 12  1  0
 12 13  1  0
 13 14  2  0
 14 15  1  0
 15 16  2  0
 16 17  1  0
 17 18  2  0
 17 19  1  0
 16 20  1  0
 12 21  1  6
  9 22  1  0
  9 23  1  0
  7  2  1  0
 18 13  1  0
M  CHG  1  10   1
M  END
$$$$
