
     RDKit          3D

 23 24  0  0  0  0  0  0  0  0999 V2000
   -3.6208    3.5144    9.5467 O   0  0  0  0  0  0  0  0  0  0  0  0
   -3.5903    2.1534    9.8688 C   0  0  0  0  0  0  0  0  0  0  0  0
   -2.7743    1.6639   10.8668 C   0  0  0  0  0  0  0  0  0  0  0  0
   -2.7601    0.3294   11.1655 C   0  0  0  0  0  0  0  0  0  0  0  0
   -3.5525   -0.5958   10.4937 C   0  0  0  0  0  0  0  0  0  0  0  0
   -4.3649   -0.0957    9.4974 C   0  0  0  0  0  0  0  0  0  0  0  0
   -4.3819    1.2480    9.1936 C   0  0  0  0  0  0  0  0  0  0  0  0
   -3.5242   -2.0234   10.8277 C   0  0  0  0  0  0  0  0  0  0  0  0
   -2.6138   -2.8250    9.9391 C   0  0  0  0  0  0  0  0  0  0  0  0
   -2.1498   -1.9747    8.8587 N   0  0  0  0  0  4  0  0  0  0  0  0
   -0.9133   -2.4504    8.2779 C   0  0  0  0  0  0  0  0  0  0  0  0
   -0.4606   -1.5610    7.1275 C   0  0  1  0  0  0  0  0  0  0  0  0
    0.6375   -2.2840    6.4361 C   0  0  0  0  0  0  0  0  0  0  0  0
    0.5683   -2.5431    5.0862 C   0  0  0  0  0  0  0  0  0  0  0  0
    1.5855   -3.2128    4.4463 C   0  0  0  0  0  0  0  0  0  0  0  0
    2.6991   -3.6378    5.1550 C   0  0  0  0  0  0  0  0  0  0  0  0
    2.7738   -3.3812    6.5067 C   0  0  0  0  0  0  0  0  0  0  0  0
    1.7446   -2.7087    7.1308 C   0  0  0  0  0  0  0  0  0  0  0  0
    3.9022   -3.8113    7.2273 O   0  0  0  0  0  0  0  0  0  0  0  0
    3.7450   -4.3235    4.5098 O   0  0  0  0  0  0  0  0  0  0  0  0
   -1.4977   -1.3009    6.2384 O   0  0  0  0  0  0  0  0  0  0  0  0
   -3.3967   -3.9692    9.3734 C   0  0  0  0  0  0  0  0  0  0  0  0
   -1.4253   -3.2857   10.7543 C   0  0  0  0  0  0  0  0  0  0  0  0
  1  2  1  0
  2  3  2  0
  3  4  1  0
  4  5  2  0
  5  6  1  0
  6  7  2  0
  5  8  1  0
  8  9  1  0
  9 10  1  0
 10 11  1  0
 11 12  1  0
 12 13  1  0
 13 14  2  0
 14 15  1  0
 15 16  2  0
 16 17  1  0
 17 18  2  0
 17 19  1  0
 16 20  1  0
 12 21  1  6
  9 22  1  0
  9 23  1  0
  7  2  1  0
 18 13  1  0
M  CHG  1  10   1
M  END
$$$$
