
     RDKit          3D

 23 24  0  0  0  0  0  0  0  0999 V2000
   -1.2421    2.0661   13.9669 O   0  0  0  0  0  0  0  0  0  0  0  0
   -1.9600    1.3213   13.0250 C   0  0  0  0  0  0  0  0  0  0  0  0
   -1.5987    1.2960   11.6945 C   0  0  0  0  0  0  0  0  0  0  0  0
   -2.3146    0.5611   10.7903 C   0  0  0  0  0  0  0  0  0  0  0  0
   -3.4282   -0.1902   11.1517 C   0  0  0  0  0  0  0  0  0  0  0  0
   -3.7810   -0.1580   12.4848 C   0  0  0  0  0  0  0  0  0  0  0  0
   -3.0622    0.5812   13.3986 C   0  0  0  0  0  0  0  0  0  0  0  0
   -4.1840   -0.9726   10.1682 C   0  0  0  0  0  0  0  0  0  0  0  0
   -3.3371   -1.9615    9.4159 C   0  0  0  0  0  0  0  0  0  0  0  0
   -2.3702   -1.2333    8.6156 N   0  0  0  0  0  4  0  0  0  0  0  0
   -1.4565   -2.1146    7.9221 C   0  0  0  0  0  0  0  0  0  0  0  0
   -0.2006   -1.3765    7.4781 C   0  0  1  0  0  0  0  0  0  0  0  0
    0.7517   -2.4084    6.9935 C   0  0  0  0  0  0  0  0  0  0  0  0
    0.5168   -3.0858    5.8187 C   0  0  0  0  0  0  0  0  0  0  0  0
    1.3990   -4.0414    5.3703 C   0  0  0  0  0  0  0  0  0  0  0  0
    2.5418   -4.3368    6.0984 C   0  0  0  0  0  0  0  0  0  0  0  0
    2.7821   -3.6617    7.2753 C   0  0  0  0  0  0  0  0  0  0  0  0
    1.8865   -2.7072    7.7088 C   0  0  0  0  0  0  0  0  0  0  0  0
    3.9402   -3.9596    8.0151 O   0  0  0  0  0  0  0  0  0  0  0  0
    3.4505   -5.3125    5.6483 O   0  0  0  0  0  0  0  0  0  0  0  0
   -0.4713   -0.4612    6.4668 O   0  0  0  0  0  0  0  0  0  0  0  0
   -4.2310   -2.7582    8.5169 C   0  0  0  0  0  0  0  0  0  0  0  0
   -2.6028   -2.8280   10.4155 C   0  0  0  0  0  0  0  0  0  0  0  0
  1  2  1  0
  2  3  2  0
  3  4  1  0
  4  5  2  0
  5  6  1  0
  6  7  2  0
  5  8  1  0
  8  9  1  0
  9 10  1  0
 10 11  1  0
 11 12  1  0
 12 13  1  0
 13 14  2  0
 14 15  1  0
 15 16  2  0
 16 17  1  0
 17 18  2  0
 17 19  1  0
 16 20  1  0
 12 21  1  6
  9 22  1  0
  9 23  1  0
  7  2  1  0
 18 13  1  0
M  CHG  1  10   1
M  END
$$$$
