
     RDKit          3D

 23 24  0  0  0  0  0  0  0  0999 V2000
   -4.4691    2.1670   14.3988 O   0  0  0  0  0  0  0  0  0  0  0  0
   -3.8673    1.3000   13.4806 C   0  0  0  0  0  0  0  0  0  0  0  0
   -2.9377    1.7466   12.5653 C   0  0  0  0  0  0  0  0  0  0  0  0
   -2.3614    0.8817   11.6764 C   0  0  0  0  0  0  0  0  0  0  0  0
   -2.6727   -0.4737   11.6430 C   0  0  0  0  0  0  0  0  0  0  0  0
   -3.6036   -0.9100   12.5625 C   0  0  0  0  0  0  0  0  0  0  0  0
   -4.1862   -0.0417   13.4596 C   0  0  0  0  0  0  0  0  0  0  0  0
   -2.0446   -1.3866   10.6823 C   0  0  0  0  0  0  0  0  0  0  0  0
   -2.9241   -1.7115    9.5068 C   0  0  0  0  0  0  0  0  0  0  0  0
   -2.2727   -1.2489    8.2955 N   0  0  0  0  0  4  0  0  0  0  0  0
   -1.1605   -2.0914    7.9141 C   0  0  0  0  0  0  0  0  0  0  0  0
   -0.4170   -1.5218    6.7132 C   0  0  1  0  0  0  0  0  0  0  0  0
    0.6104   -2.5249    6.3326 C   0  0  0  0  0  0  0  0  0  0  0  0
    0.4929   -3.2437    5.1648 C   0  0  0  0  0  0  0  0  0  0  0  0
    1.4446   -4.1725    4.8128 C   0  0  0  0  0  0  0  0  0  0  0  0
    2.5400   -4.3986    5.6326 C   0  0  0  0  0  0  0  0  0  0  0  0
    2.6629   -3.6819    6.8029 C   0  0  0  0  0  0  0  0  0  0  0  0
    1.6990   -2.7551    7.1392 C   0  0  0  0  0  0  0  0  0  0  0  0
    3.7729   -3.9095    7.6357 O   0  0  0  0  0  0  0  0  0  0  0  0
    3.5191   -5.3464    5.2814 O   0  0  0  0  0  0  0  0  0  0  0  0
   -1.2728   -1.2825    5.6436 O   0  0  0  0  0  0  0  0  0  0  0  0
   -4.2257   -0.9918    9.6802 C   0  0  0  0  0  0  0  0  0  0  0  0
   -3.0995   -3.2126    9.4345 C   0  0  0  0  0  0  0  0  0  0  0  0
  1  2  1  0
  2  3  2  0
  3  4  1  0
  4  5  2  0
  5  6  1  0
  6  7  2  0
  5  8  1  0
  8  9  1  0
  9 10  1  0
 10 11  1  0
 11 12  1  0
 12 13  1  0
 13 14  2  0
 14 15  1  0
 15 16  2  0
 16 17  1  0
 17 18  2  0
 17 19  1  0
 16 20  1  0
 12 21  1  6
  9 22  1  0
  9 23  1  0
  7  2  1  0
 18 13  1  0
M  CHG  1  10   1
M  END
$$$$
